  
       XFOIL         Version 6.99
  
 Calculated polar for: s1075                                           
  
 1 1 Reynolds number fixed          Mach number fixed         
  
 xtrf =   1.000 (top)        1.000 (bottom)  
 Mach =   0.000     Re =     0.010 e 6     Ncrit =   9.000
  
   alpha    CL        CD       CDp       CM     Top_Xtr  Bot_Xtr
  ------ -------- --------- --------- -------- -------- --------
  20.000   0.9593   0.27467   0.25858  -0.1277   0.6126   0.9999
  19.900   0.9546   0.27295   0.25683  -0.1270   0.6182   0.9999
  19.800   0.9504   0.27156   0.25541  -0.1263   0.6238   0.9999
  19.700   0.9466   0.27054   0.25437  -0.1257   0.6295   0.9999
  19.600   0.9433   0.26984   0.25366  -0.1252   0.6350   0.9999
  19.500   0.9378   0.26748   0.25127  -0.1243   0.6410   0.9999
  19.400   0.9329   0.26570   0.24946  -0.1236   0.6471   0.9999
  19.300   0.9291   0.26468   0.24842  -0.1230   0.6531   0.9999
  19.200   0.9254   0.26372   0.24745  -0.1225   0.6590   0.9999
  19.100   0.9196   0.26130   0.24498  -0.1216   0.6655   0.9999
  19.000   0.9155   0.26011   0.24377  -0.1210   0.6719   0.9999
  18.900   0.9117   0.25910   0.24275  -0.1204   0.6781   0.9999
  18.800   0.9058   0.25676   0.24036  -0.1195   0.6849   0.9999
  18.700   0.9023   0.25598   0.23956  -0.1190   0.6915   0.9999
  18.600   0.8967   0.25381   0.23736  -0.1182   0.6983   0.9999
  18.500   0.8924   0.25258   0.23609  -0.1176   0.7053   0.9999
  18.400   0.8875   0.25090   0.23439  -0.1168   0.7122   0.9999
  18.300   0.8827   0.24938   0.23282  -0.1161   0.7195   0.9999
  18.200   0.8776   0.24765   0.23106  -0.1153   0.7267   0.9999
  18.100   0.8733   0.24645   0.22983  -0.1147   0.7342   0.9999
  18.000   0.8675   0.24431   0.22765  -0.1138   0.7417   0.9999
  17.900   0.8642   0.24385   0.22716  -0.1134   0.7491   0.9999
  17.800   0.8576   0.24125   0.22451  -0.1123   0.7574   0.9999
  17.700   0.8523   0.23950   0.22272  -0.1115   0.7652   0.9999
  17.600   0.8486   0.23887   0.22207  -0.1110   0.7731   0.9999
  17.500   0.8422   0.23656   0.21971  -0.1100   0.7818   0.9999
  17.400   0.8362   0.23449   0.21758  -0.1090   0.7903   0.9999
  17.300   0.8307   0.23279   0.21584  -0.1082   0.7988   0.9999
  17.200   0.8255   0.23136   0.21437  -0.1074   0.8076   0.9999
  17.100   0.8204   0.22999   0.21295  -0.1066   0.8166   0.9999
  17.000   0.8151   0.22854   0.21146  -0.1057   0.8257   0.9999
  16.900   0.8091   0.22679   0.20966  -0.1047   0.8352   0.9999
  16.800   0.8028   0.22484   0.20766  -0.1036   0.8450   0.9999
  16.700   0.7961   0.22277   0.20552  -0.1024   0.8549   0.9999
  16.600   0.7891   0.22057   0.20325  -0.1012   0.8652   0.9999
  16.500   0.7822   0.21854   0.20116  -0.0999   0.8757   0.9999
  16.400   0.7758   0.21691   0.19946  -0.0988   0.8864   0.9999
  16.300   0.7699   0.21565   0.19814  -0.0977   0.8972   0.9999
  16.200   0.7610   0.21280   0.19521  -0.0959   0.9087   0.9999
  16.100   0.7543   0.21137   0.19371  -0.0945   0.9203   0.9999
  16.000   0.7451   0.20863   0.19088  -0.0925   0.9325   0.9999
  15.900   0.7374   0.20706   0.18922  -0.0909   0.9448   0.9999
  15.800   0.7276   0.20455   0.18662  -0.0886   0.9580   0.9999
  15.700   0.7167   0.20170   0.18366  -0.0860   0.9715   0.9999
  15.600   0.7036   0.19816   0.17999  -0.0827   0.9855   0.9999
  15.500   0.6856   0.19268   0.17434  -0.0780   1.0001   0.9999
  15.400   0.6816   0.19118   0.17278  -0.0772   1.0001   0.9999
  15.300   0.6777   0.18968   0.17123  -0.0763   1.0001   0.9999
  15.200   0.6738   0.18820   0.16968  -0.0755   1.0001   0.9999
  15.100   0.6698   0.18671   0.16814  -0.0746   1.0001   0.9999
  15.000   0.6659   0.18523   0.16659  -0.0738   1.0001   0.9999
  14.900   0.6620   0.18375   0.16505  -0.0729   1.0001   0.9999
  14.800   0.6581   0.18228   0.16352  -0.0721   1.0001   0.9999
  14.700   0.6542   0.18081   0.16198  -0.0713   1.0001   0.9999
  14.600   0.6503   0.17934   0.16046  -0.0704   1.0001   0.9999
  14.500   0.6464   0.17788   0.15893  -0.0696   1.0001   0.9999
  14.400   0.6426   0.17642   0.15741  -0.0688   1.0001   0.9999
  14.300   0.6387   0.17497   0.15590  -0.0680   1.0001   0.9999
  14.200   0.6348   0.17352   0.15439  -0.0672   1.0001   0.9999
  14.100   0.6310   0.17209   0.15288  -0.0664   1.0001   0.9999
  14.000   0.6271   0.17065   0.15137  -0.0655   1.0001   0.9999
  13.900   0.6232   0.16921   0.14987  -0.0648   1.0001   0.9999
  13.800   0.6194   0.16779   0.14838  -0.0640   1.0001   0.9999
  13.700   0.6155   0.16636   0.14689  -0.0632   1.0001   0.9999
  13.600   0.6117   0.16495   0.14541  -0.0624   1.0001   0.9999
  13.500   0.6079   0.16353   0.14393  -0.0616   1.0001   0.9999
  13.400   0.6040   0.16212   0.14244  -0.0608   1.0001   0.9999
  13.300   0.6002   0.16072   0.14097  -0.0601   1.0001   0.9999
  13.200   0.5964   0.15932   0.13950  -0.0593   1.0001   0.9999
  13.100   0.5926   0.15793   0.13804  -0.0586   1.0001   0.9999
  13.000   0.5888   0.15654   0.13658  -0.0578   1.0001   0.9999
  12.900   0.5850   0.15515   0.13513  -0.0571   1.0001   0.9999
  12.800   0.5812   0.15377   0.13368  -0.0563   1.0001   0.9999
  12.700   0.5774   0.15240   0.13223  -0.0556   1.0001   0.9999
  12.600   0.5736   0.15102   0.13079  -0.0549   1.0001   0.9999
  12.500   0.5698   0.14966   0.12935  -0.0542   1.0001   0.9999
  12.400   0.5661   0.14829   0.12791  -0.0534   1.0001   0.9999
  12.300   0.5623   0.14694   0.12648  -0.0527   1.0001   0.9999
  12.200   0.5585   0.14559   0.12506  -0.0520   1.0001   0.9999
  12.100   0.5548   0.14424   0.12364  -0.0513   1.0001   0.9999
  12.000   0.5510   0.14289   0.12223  -0.0506   1.0001   0.9999
  11.900   0.5472   0.14156   0.12081  -0.0500   1.0001   0.9999
  11.800   0.5435   0.14022   0.11941  -0.0493   1.0001   0.9999
  11.700   0.5398   0.13890   0.11801  -0.0486   1.0001   0.9999
  11.600   0.5360   0.13757   0.11662  -0.0479   1.0001   0.9999
  11.500   0.5323   0.13625   0.11523  -0.0473   1.0001   0.9999
  11.400   0.5285   0.13494   0.11384  -0.0466   1.0001   0.9999
  11.300   0.5248   0.13363   0.11246  -0.0460   1.0001   0.9999
  11.200   0.5211   0.13233   0.11109  -0.0453   1.0001   0.9999
  11.100   0.5173   0.13103   0.10971  -0.0447   1.0001   0.9999
  11.000   0.5136   0.12974   0.10835  -0.0441   1.0001   0.9999
  10.900   0.5099   0.12845   0.10699  -0.0435   1.0001   0.9999
  10.800   0.5061   0.12717   0.10563  -0.0428   1.0001   0.9999
  10.700   0.5024   0.12589   0.10428  -0.0422   1.0001   0.9999
  10.600   0.4987   0.12462   0.10293  -0.0416   1.0001   0.9999
  10.500   0.4949   0.12335   0.10160  -0.0410   1.0001   0.9999
  10.400   0.4912   0.12209   0.10026  -0.0404   1.0001   0.9999
  10.300   0.4875   0.12084   0.09894  -0.0399   1.0001   0.9999
  10.200   0.4837   0.11959   0.09762  -0.0393   1.0001   0.9999
  10.100   0.4800   0.11834   0.09631  -0.0387   1.0001   0.9999
  10.000   0.4762   0.11711   0.09499  -0.0381   1.0001   0.9999
   9.900   0.4725   0.11588   0.09369  -0.0376   1.0001   0.9999
   9.800   0.4687   0.11465   0.09240  -0.0370   1.0001   0.9999
   9.700   0.4649   0.11343   0.09111  -0.0365   1.0001   0.9999
   9.600   0.4611   0.11222   0.08983  -0.0359   1.0001   0.9999
   9.500   0.4573   0.11101   0.08856  -0.0354   1.0001   0.9999
   9.400   0.4535   0.10982   0.08729  -0.0349   1.0001   0.9999
   9.300   0.4498   0.10863   0.08603  -0.0343   1.0001   0.9999
   9.200   0.4459   0.10744   0.08478  -0.0338   1.0001   0.9999
   9.100   0.4421   0.10627   0.08353  -0.0333   1.0001   0.9999
   9.000   0.4382   0.10510   0.08230  -0.0328   1.0001   0.9999
   8.900   0.4344   0.10393   0.08106  -0.0323   1.0001   0.9999
   8.800   0.4305   0.10278   0.07984  -0.0318   1.0001   0.9999
   8.700   0.4266   0.10163   0.07863  -0.0313   1.0001   0.9999
   8.600   0.4227   0.10049   0.07743  -0.0308   1.0001   0.9999
   8.500   0.4188   0.09937   0.07624  -0.0303   1.0001   0.9999
   8.400   0.4148   0.09824   0.07505  -0.0298   1.0001   0.9999
   8.300   0.4109   0.09713   0.07388  -0.0293   1.0001   0.9999
   8.200   0.4069   0.09603   0.07271  -0.0288   1.0001   0.9999
   8.100   0.4029   0.09493   0.07155  -0.0284   1.0001   0.9999
   8.000   0.3989   0.09384   0.07041  -0.0279   1.0001   0.9999
   7.900   0.3949   0.09277   0.06927  -0.0274   1.0001   0.9999
   7.800   0.3908   0.09170   0.06814  -0.0270   1.0001   0.9999
   7.700   0.3867   0.09064   0.06702  -0.0265   1.0001   0.9999
   7.600   0.3826   0.08959   0.06592  -0.0261   1.0001   0.9999
   7.500   0.3784   0.08855   0.06482  -0.0256   1.0001   0.9999
   7.400   0.3743   0.08752   0.06374  -0.0252   1.0001   0.9999
   7.300   0.3701   0.08650   0.06266  -0.0247   1.0001   0.9999
   7.200   0.3659   0.08549   0.06159  -0.0243   1.0001   0.9999
   7.100   0.3616   0.08449   0.06054  -0.0239   1.0001   0.9999
   7.000   0.3574   0.08350   0.05949  -0.0235   1.0001   0.9999
   6.900   0.3531   0.08252   0.05847  -0.0231   1.0001   0.9999
   6.800   0.3488   0.08155   0.05745  -0.0226   1.0001   0.9999
   6.700   0.3444   0.08059   0.05644  -0.0222   1.0001   0.9999
   6.600   0.3401   0.07964   0.05544  -0.0218   1.0001   0.9999
   6.500   0.3357   0.07870   0.05446  -0.0214   1.0001   0.9999
   6.400   0.3312   0.07777   0.05349  -0.0210   1.0001   0.9999
   6.300   0.3268   0.07686   0.05252  -0.0207   1.0001   0.9999
   6.200   0.3223   0.07595   0.05157  -0.0203   1.0001   0.9999
   6.100   0.3178   0.07505   0.05064  -0.0199   1.0001   0.9999
   6.000   0.3133   0.07417   0.04971  -0.0195   1.0001   0.9999
   5.900   0.3087   0.07330   0.04880  -0.0192   1.0001   0.9999
   5.800   0.3041   0.07244   0.04790  -0.0188   1.0001   0.9999
   5.700   0.2995   0.07159   0.04702  -0.0184   1.0001   0.9999
   5.600   0.2949   0.07075   0.04614  -0.0181   1.0001   0.9999
   5.500   0.2902   0.06992   0.04528  -0.0178   1.0001   0.9999
   5.400   0.2855   0.06910   0.04444  -0.0174   1.0001   0.9999
   5.300   0.2808   0.06830   0.04360  -0.0171   1.0001   0.9999
   5.200   0.2760   0.06750   0.04277  -0.0168   1.0001   0.9999
   5.100   0.2712   0.06672   0.04196  -0.0164   1.0001   0.9999
   5.000   0.2664   0.06595   0.04116  -0.0161   1.0001   0.9999
   4.900   0.2615   0.06518   0.04038  -0.0158   1.0001   0.9999
   4.800   0.2566   0.06443   0.03960  -0.0155   1.0001   0.9999
   4.700   0.2517   0.06370   0.03884  -0.0152   1.0001   0.9999
   4.600   0.2468   0.06297   0.03810  -0.0150   1.0001   0.9999
   4.500   0.2418   0.06225   0.03736  -0.0147   1.0001   0.9999
   4.400   0.2368   0.06154   0.03664  -0.0144   1.0001   0.9999
   4.300   0.2318   0.06085   0.03594  -0.0141   1.0001   0.9999
   4.200   0.2267   0.06017   0.03524  -0.0139   1.0001   0.9999
   4.100   0.2216   0.05950   0.03456  -0.0136   1.0001   0.9999
   4.000   0.2165   0.05883   0.03389  -0.0134   1.0001   0.9999
   3.900   0.2113   0.05819   0.03324  -0.0132   1.0001   0.9999
   3.800   0.2061   0.05755   0.03259  -0.0130   1.0001   0.9999
   3.600   0.1957   0.05631   0.03135  -0.0125   1.0001   0.9999
   3.500   0.1904   0.05570   0.03075  -0.0123   1.0001   0.9999
   3.400   0.1851   0.05511   0.03016  -0.0122   1.0001   0.9999
   3.300   0.1798   0.05453   0.02958  -0.0120   1.0001   0.9999
   3.200   0.1744   0.05396   0.02902  -0.0118   1.0001   0.9999
   3.100   0.1691   0.05340   0.02848  -0.0117   1.0001   0.9999
   3.000   0.1637   0.05285   0.02794  -0.0115   1.0001   0.9999
   2.900   0.1583   0.05232   0.02742  -0.0114   1.0001   0.9999
   2.800   0.1529   0.05179   0.02692  -0.0113   1.0001   0.9999
   2.700   0.1474   0.05128   0.02643  -0.0112   1.0001   0.9999
   2.600   0.1420   0.05078   0.02595  -0.0111   1.0001   0.9999
   2.500   0.1365   0.05029   0.02548  -0.0110   1.0001   0.9999
   2.400   0.1310   0.04981   0.02503  -0.0109   1.0001   0.9999
   2.300   0.1254   0.04934   0.02459  -0.0108   1.0001   0.9999
   2.200   0.1199   0.04888   0.02417  -0.0108   1.0001   0.9999
   2.100   0.1143   0.04843   0.02375  -0.0107   1.0001   0.9999
   2.000   0.1087   0.04799   0.02336  -0.0107   1.0001   0.9999
   0.000  -0.0035   0.04146   0.01825  -0.0131   1.0001   0.9999
   0.100   0.0020   0.04169   0.01838  -0.0128   1.0001   0.9999
   0.200   0.0074   0.04193   0.01852  -0.0125   1.0001   0.9999
   0.300   0.0129   0.04218   0.01868  -0.0123   1.0001   0.9999
   0.400   0.0184   0.04244   0.01885  -0.0121   1.0001   0.9999
   0.500   0.0240   0.04271   0.01902  -0.0119   1.0001   0.9999
   0.600   0.0296   0.04299   0.01922  -0.0117   1.0001   0.9999
   0.700   0.0352   0.04328   0.01943  -0.0115   1.0001   0.9999
   0.800   0.0408   0.04359   0.01965  -0.0114   1.0001   0.9999
   0.900   0.0464   0.04390   0.01989  -0.0112   1.0001   0.9999
   1.000   0.0521   0.04422   0.02014  -0.0111   1.0001   0.9999
   1.100   0.0577   0.04455   0.02041  -0.0110   1.0001   0.9999
   1.200   0.0634   0.04489   0.02067  -0.0109   1.0001   0.9999
   1.300   0.0690   0.04524   0.02096  -0.0108   1.0001   0.9999
   1.400   0.0747   0.04561   0.02127  -0.0108   1.0001   0.9999
   1.500   0.0803   0.04598   0.02159  -0.0107   1.0001   0.9999
   1.600   0.0860   0.04636   0.02192  -0.0107   1.0001   0.9999
   1.700   0.0916   0.04676   0.02226  -0.0106   1.0001   0.9999
   1.800   0.0972   0.04716   0.02262  -0.0106   1.0001   0.9999
   1.900   0.1028   0.04758   0.02299  -0.0106   1.0001   0.9999
  25.000   1.1476   0.33818   0.32296  -0.1646   0.4122   0.9999
  24.900   1.1440   0.33679   0.32154  -0.1637   0.4151   0.9999
  24.800   1.1420   0.33721   0.32196  -0.1629   0.4180   0.9999
  24.700   1.1372   0.33455   0.31927  -0.1621   0.4213   0.9999
  24.600   1.1339   0.33350   0.31821  -0.1613   0.4242   0.9999
  24.500   1.1315   0.33351   0.31820  -0.1605   0.4273   0.9999
  24.400   1.1268   0.33102   0.31570  -0.1597   0.4306   0.9999
  24.300   1.1235   0.32999   0.31465  -0.1589   0.4336   0.9999
  24.200   1.1212   0.33011   0.31476  -0.1581   0.4367   0.9999
  24.100   1.1164   0.32762   0.31225  -0.1573   0.4402   0.9999
  24.000   1.1129   0.32632   0.31093  -0.1565   0.4433   0.9999
  23.900   1.1106   0.32638   0.31099  -0.1557   0.4465   0.9999
  23.800   1.1062   0.32441   0.30898  -0.1549   0.4501   0.9999
  23.700   1.1021   0.32263   0.30719  -0.1541   0.4535   0.9999
  23.600   1.0991   0.32193   0.30648  -0.1534   0.4567   0.9999
  23.500   1.0964   0.32159   0.30612  -0.1526   0.4602   0.9999
  23.400   1.0916   0.31933   0.30384  -0.1518   0.4639   0.9999
  23.300   1.0877   0.31780   0.30230  -0.1511   0.4673   0.9999
  23.200   1.0847   0.31712   0.30161  -0.1503   0.4708   0.9999
  23.100   1.0820   0.31678   0.30125  -0.1496   0.4743   0.9999
  23.000   1.0773   0.31460   0.29905  -0.1488   0.4782   0.9999
  22.900   1.0731   0.31290   0.29734  -0.1481   0.4819   0.9999
  22.800   1.0696   0.31179   0.29620  -0.1473   0.4855   0.9999
  22.700   1.0666   0.31119   0.29560  -0.1466   0.4893   0.9999
  22.600   1.0634   0.31043   0.29482  -0.1459   0.4931   0.9999
  22.500   1.0589   0.30844   0.29281  -0.1451   0.4972   0.9999
  22.400   1.0547   0.30674   0.29108  -0.1444   0.5011   0.9999
  22.300   1.0508   0.30535   0.28968  -0.1436   0.5051   0.9999
  22.200   1.0472   0.30425   0.28858  -0.1429   0.5090   0.9999
  22.100   1.0439   0.30340   0.28771  -0.1422   0.5130   0.9999
  22.000   1.0409   0.30283   0.28713  -0.1416   0.5170   0.9999
  21.900   1.0369   0.30142   0.28569  -0.1408   0.5214   0.9999
  21.800   1.0325   0.29966   0.28391  -0.1401   0.5257   0.9999
  21.700   1.0283   0.29803   0.28226  -0.1394   0.5301   0.9999
  21.600   1.0241   0.29648   0.28070  -0.1386   0.5344   0.9999
  21.500   1.0200   0.29503   0.27922  -0.1379   0.5388   0.9999
  21.400   1.0160   0.29363   0.27780  -0.1372   0.5433   0.9999
  21.300   1.0120   0.29227   0.27642  -0.1365   0.5478   0.9999
  21.200   1.0081   0.29092   0.27505  -0.1358   0.5524   0.9999
  21.100   1.0041   0.28957   0.27369  -0.1351   0.5570   0.9999
  21.000   1.0001   0.28821   0.27232  -0.1344   0.5617   0.9999
  20.900   0.9960   0.28685   0.27094  -0.1337   0.5665   0.9999
  20.800   0.9920   0.28549   0.26956  -0.1331   0.5714   0.9999
  20.700   0.9879   0.28414   0.26818  -0.1324   0.5763   0.9999
  20.600   0.9839   0.28281   0.26684  -0.1317   0.5813   0.9999
  20.500   0.9799   0.28150   0.26551  -0.1310   0.5863   0.9999
  20.400   0.9761   0.28035   0.26434  -0.1304   0.5914   0.9999
  20.300   0.9723   0.27926   0.26323  -0.1297   0.5966   0.9999
  20.200   0.9687   0.27830   0.26226  -0.1291   0.6017   0.9999
  20.100   0.9643   0.27670   0.26064  -0.1284   0.6070   0.9999
