  
       XFOIL         Version 6.99
  
 Calculated polar for: s1075                                           
  
 1 1 Reynolds number fixed          Mach number fixed         
  
 xtrf =   1.000 (top)        1.000 (bottom)  
 Mach =   0.000     Re =     0.040 e 6     Ncrit =   9.000
  
   alpha    CL        CD       CDp       CM     Top_Xtr  Bot_Xtr
  ------ -------- --------- --------- -------- -------- --------
  20.000   0.9855   0.26212   0.25412  -0.1073   0.1651   0.9999
  19.900   0.9797   0.25995   0.25195  -0.1071   0.1670   0.9999
  19.800   0.9777   0.25913   0.25112  -0.1060   0.1691   0.9999
  19.700   0.9738   0.25756   0.24956  -0.1053   0.1706   0.9999
  19.600   0.9702   0.25626   0.24824  -0.1045   0.1729   0.9999
  19.500   0.9683   0.25529   0.24729  -0.1034   0.1744   0.9999
  19.400   0.9633   0.25352   0.24550  -0.1030   0.1768   0.9999
  19.300   0.9630   0.25310   0.24509  -0.1016   0.1784   0.9999
  19.200   0.9566   0.25086   0.24284  -0.1014   0.1808   0.9999
  19.100   0.9557   0.25029   0.24227  -0.1002   0.1827   0.9999
  19.000   0.9501   0.24824   0.24021  -0.0998   0.1849   0.9999
  18.900   0.9489   0.24754   0.23951  -0.0987   0.1871   0.9999
  18.800   0.9437   0.24562   0.23759  -0.0983   0.1892   0.9999
  18.700   0.9422   0.24483   0.23680  -0.0972   0.1915   0.9999
  18.600   0.9372   0.24295   0.23491  -0.0967   0.1936   0.9999
  18.500   0.9359   0.24218   0.23415  -0.0956   0.1960   0.9999
  18.400   0.9306   0.24027   0.23222  -0.0952   0.1983   0.9999
  18.300   0.9298   0.23959   0.23154  -0.0941   0.2006   0.9999
  18.200   0.9241   0.23757   0.22952  -0.0937   0.2031   0.9999
  18.100   0.9240   0.23703   0.22898  -0.0925   0.2052   0.9999
  18.000   0.9178   0.23490   0.22684  -0.0923   0.2081   0.9999
  17.900   0.9167   0.23402   0.22597  -0.0912   0.2102   0.9999
  17.800   0.9119   0.23232   0.22425  -0.0908   0.2132   0.9999
  17.700   0.9088   0.23091   0.22284  -0.0900   0.2155   0.9999
  17.600   0.9067   0.22984   0.22177  -0.0892   0.2184   0.9999
  17.500   0.9018   0.22803   0.21994  -0.0887   0.2210   0.9999
  17.400   0.9022   0.22749   0.21941  -0.0876   0.2234   0.9999
  17.300   0.8959   0.22540   0.21730  -0.0873   0.2266   0.9999
  17.200   0.8931   0.22404   0.21594  -0.0866   0.2291   0.9999
  17.100   0.8914   0.22302   0.21492  -0.0858   0.2321   0.9999
  17.000   0.8862   0.22114   0.21302  -0.0854   0.2352   0.9999
  16.900   0.8847   0.22006   0.21194  -0.0845   0.2377   0.9999
  16.800   0.8817   0.21874   0.21061  -0.0839   0.2411   0.9999
  16.700   0.8769   0.21695   0.20881  -0.0835   0.2442   0.9999
  16.600   0.8756   0.21587   0.20773  -0.0826   0.2468   0.9999
  16.500   0.8729   0.21460   0.20645  -0.0820   0.2503   0.9999
  16.400   0.8679   0.21279   0.20462  -0.0816   0.2537   0.9999
  16.300   0.8653   0.21142   0.20325  -0.0810   0.2567   0.9999
  16.200   0.8652   0.21062   0.20245  -0.0801   0.2598   0.9999
  16.100   0.8598   0.20877   0.20058  -0.0798   0.2637   0.9999
  16.000   0.8556   0.20711   0.19890  -0.0793   0.2672   0.9999
  15.900   0.8532   0.20577   0.19756  -0.0787   0.2704   0.9999
  15.800   0.8535   0.20497   0.19676  -0.0778   0.2737   0.9999
  15.700   0.8485   0.20321   0.19498  -0.0775   0.2778   0.9999
  15.600   0.8441   0.20152   0.19327  -0.0771   0.2816   0.9999
  15.500   0.8407   0.19999   0.19172  -0.0766   0.2853   0.9999
  15.400   0.8383   0.19864   0.19036  -0.0760   0.2889   0.9999
  15.300   0.8378   0.19762   0.18935  -0.0753   0.2925   0.9999
  15.200   0.8350   0.19624   0.18795  -0.0749   0.2966   0.9999
  15.100   0.8309   0.19461   0.18630  -0.0745   0.3008   0.9999
  15.000   0.8269   0.19300   0.18467  -0.0741   0.3050   0.9999
  14.900   0.8234   0.19147   0.18312  -0.0737   0.3092   0.9999
  14.800   0.8202   0.18998   0.18161  -0.0732   0.3133   0.9999
  14.700   0.8174   0.18854   0.18015  -0.0728   0.3174   0.9999
  14.600   0.8149   0.18715   0.17874  -0.0723   0.3215   0.9999
  14.500   0.8129   0.18582   0.17740  -0.0719   0.3256   0.9999
  14.400   0.8109   0.18452   0.17609  -0.0714   0.3299   0.9999
  14.300   0.8093   0.18326   0.17481  -0.0710   0.3342   0.9999
  14.200   0.8074   0.18197   0.17351  -0.0706   0.3385   0.9999
  14.100   0.8042   0.18048   0.17199  -0.0702   0.3431   0.9999
  14.000   0.8012   0.17901   0.17050  -0.0699   0.3477   0.9999
  13.900   0.7981   0.17752   0.16899  -0.0696   0.3523   0.9999
  13.800   0.7951   0.17607   0.16751  -0.0692   0.3570   0.9999
  13.700   0.7922   0.17460   0.16602  -0.0689   0.3616   0.9999
  13.600   0.7893   0.17315   0.16454  -0.0686   0.3663   0.9999
  13.500   0.7866   0.17171   0.16308  -0.0683   0.3709   0.9999
  13.400   0.7839   0.17028   0.16162  -0.0680   0.3756   0.9999
  13.300   0.7813   0.16885   0.16017  -0.0677   0.3803   0.9999
  13.200   0.7788   0.16745   0.15874  -0.0674   0.3851   0.9999
  13.100   0.7764   0.16604   0.15731  -0.0671   0.3898   0.9999
  13.000   0.7741   0.16464   0.15589  -0.0669   0.3946   0.9999
  12.900   0.7708   0.16313   0.15435  -0.0666   0.3995   0.9999
  12.800   0.7671   0.16157   0.15276  -0.0664   0.4044   0.9999
  12.700   0.7630   0.15999   0.15114  -0.0662   0.4095   0.9999
  12.600   0.7593   0.15846   0.14958  -0.0660   0.4146   0.9999
  12.500   0.7559   0.15697   0.14806  -0.0657   0.4198   0.9999
  12.400   0.7527   0.15552   0.14657  -0.0655   0.4250   0.9999
  12.300   0.7500   0.15410   0.14512  -0.0654   0.4302   0.9999
  12.200   0.7476   0.15272   0.14371  -0.0652   0.4354   0.9999
  12.100   0.7457   0.15138   0.14235  -0.0650   0.4406   0.9999
  12.000   0.7440   0.15004   0.14098  -0.0649   0.4456   0.9999
  11.900   0.7427   0.14875   0.13966  -0.0648   0.4507   0.9999
  11.800   0.7405   0.14736   0.13825  -0.0646   0.4558   0.9999
  11.700   0.7349   0.14568   0.13652  -0.0644   0.4613   0.9999
  11.600   0.7304   0.14413   0.13493  -0.0643   0.4670   0.9999
  11.500   0.7275   0.14272   0.13348  -0.0641   0.4725   0.9999
  11.400   0.7256   0.14138   0.13212  -0.0641   0.4780   0.9999
  11.300   0.7245   0.14012   0.13083  -0.0640   0.4834   0.9999
  11.200   0.7236   0.13885   0.12953  -0.0640   0.4885   0.9999
  11.100   0.7178   0.13719   0.12782  -0.0638   0.4942   0.9999
  11.000   0.7130   0.13566   0.12625  -0.0637   0.5001   0.9999
  10.900   0.7102   0.13428   0.12484  -0.0636   0.5058   0.9999
  10.800   0.7090   0.13301   0.12354  -0.0636   0.5114   0.9999
  10.700   0.7083   0.13177   0.12227  -0.0637   0.5167   0.9999
  10.600   0.7033   0.13020   0.12067  -0.0635   0.5224   0.9999
  10.500   0.6978   0.12866   0.11908  -0.0633   0.5285   0.9999
  10.400   0.6952   0.12732   0.11769  -0.0633   0.5342   0.9999
  10.300   0.6941   0.12606   0.11641  -0.0634   0.5398   0.9999
  10.200   0.6934   0.12482   0.11514  -0.0635   0.5451   0.9999
  10.100   0.6870   0.12321   0.11348  -0.0633   0.5510   0.9999
  10.000   0.6820   0.12175   0.11197  -0.0631   0.5571   0.9999
   9.900   0.6797   0.12045   0.11064  -0.0632   0.5628   0.9999
   9.800   0.6787   0.11921   0.10937  -0.0633   0.5683   0.9999
   9.700   0.6777   0.11795   0.10809  -0.0634   0.5735   0.9999
   9.600   0.6698   0.11632   0.10640  -0.0630   0.5797   0.9999
   9.500   0.6655   0.11494   0.10497  -0.0629   0.5856   0.9999
   9.400   0.6630   0.11363   0.10364  -0.0630   0.5912   0.9999
   9.300   0.6611   0.11236   0.10233  -0.0630   0.5964   0.9999
   9.200   0.6591   0.11107   0.10100  -0.0631   0.6015   0.9999
   9.100   0.6567   0.10976   0.09965  -0.0631   0.6064   0.9999
   9.000   0.6539   0.10841   0.09828  -0.0631   0.6112   0.9999
   8.900   0.6509   0.10707   0.09689  -0.0630   0.6160   0.9999
   8.800   0.6470   0.10567   0.09546  -0.0629   0.6205   0.9999
   8.500   0.6453   0.10120   0.09090  -0.0621   0.6205   0.9999
   8.400   0.8145   0.08029   0.07054  -0.0463   0.4491   0.9999
   8.300   0.8157   0.07866   0.06889  -0.0463   0.4533   0.9999
   8.200   0.8181   0.07692   0.06714  -0.0463   0.4575   0.9999
   8.100   0.8339   0.07389   0.06415  -0.0459   0.4600   0.9999
   8.000   0.8356   0.07227   0.06251  -0.0461   0.4647   0.9999
   7.900   0.8376   0.07064   0.06086  -0.0463   0.4693   0.9999
   7.800   0.8407   0.06893   0.05913  -0.0465   0.4739   0.9999
   7.700   0.8445   0.06709   0.05727  -0.0465   0.4787   0.9999
   7.600   0.8490   0.06513   0.05530  -0.0466   0.4837   0.9999
   7.500   0.8377   0.06491   0.05500  -0.0472   0.4897   0.9999
   7.400   0.8319   0.06409   0.05412  -0.0477   0.4954   0.9999
   7.300   0.8312   0.06273   0.05272  -0.0479   0.5009   0.9999
   7.200   0.8329   0.06112   0.05109  -0.0481   0.5064   0.9999
   7.100   0.8378   0.05919   0.04913  -0.0482   0.5120   0.9999
   7.000   0.8263   0.05900   0.04887  -0.0488   0.5180   0.9999
   6.900   0.8187   0.05839   0.04821  -0.0493   0.5239   0.9999
   6.800   0.8173   0.05715   0.04692  -0.0497   0.5298   0.9999
   6.700   0.8200   0.05549   0.04523  -0.0499   0.5359   0.9999
   6.600   0.8073   0.05541   0.04508  -0.0505   0.5418   0.9999
   6.500   0.8001   0.05477   0.04439  -0.0509   0.5478   0.9999
   6.400   0.7999   0.05344   0.04302  -0.0513   0.5541   0.9999
   6.300   0.7925   0.05284   0.04237  -0.0517   0.5602   0.9999
   6.200   0.7827   0.05246   0.04193  -0.0522   0.5662   0.9999
   6.100   0.7790   0.05151   0.04093  -0.0526   0.5726   0.9999
   6.000   0.7739   0.05069   0.04007  -0.0530   0.5789   0.9999
   5.900   0.7633   0.05039   0.03971  -0.0535   0.5849   0.9999
   5.800   0.7580   0.04960   0.03888  -0.0539   0.5914   0.9999
   5.700   0.7528   0.04881   0.03804  -0.0543   0.5977   0.9999
   5.600   0.7420   0.04852   0.03770  -0.0548   0.6038   0.9999
   5.500   0.7363   0.04779   0.03693  -0.0552   0.6103   0.9999
   5.400   0.7297   0.04714   0.03623  -0.0556   0.6168   0.9999
   5.300   0.7192   0.04683   0.03587  -0.0560   0.6229   0.9999
   5.200   0.7143   0.04604   0.03505  -0.0564   0.6297   0.9999
   5.100   0.7050   0.04563   0.03459  -0.0569   0.6360   0.9999
   5.000   0.6951   0.04526   0.03418  -0.0572   0.6423   0.9999
   4.900   0.6915   0.04440   0.03329  -0.0577   0.6494   0.9999
   4.800   0.6792   0.04422   0.03306  -0.0580   0.6554   0.9999
   4.700   0.6707   0.04375   0.03255  -0.0584   0.6620   0.9999
   4.600   0.6641   0.04314   0.03191  -0.0588   0.6688   0.9999
   4.500   0.6527   0.04287   0.03160  -0.0591   0.6751   0.9999
   4.400   0.6480   0.04215   0.03085  -0.0596   0.6823   0.9999
   4.300   0.6356   0.04194   0.03060  -0.0598   0.6886   0.9999
   4.200   0.6263   0.04152   0.03015  -0.0601   0.6952   0.9999
   4.100   0.6185   0.04102   0.02962  -0.0605   0.7022   0.9999
   4.000   0.6070   0.04073   0.02930  -0.0606   0.7086   0.9999
   3.900   0.6012   0.04012   0.02866  -0.0611   0.7159   0.9999
   3.800   0.5881   0.03991   0.02842  -0.0612   0.7223   0.9999
   3.700   0.5802   0.03942   0.02791  -0.0615   0.7294   0.9999
   3.600   0.5689   0.03911   0.02757  -0.0616   0.7361   0.9999
   3.500   0.5585   0.03875   0.02718  -0.0618   0.7430   0.9999
   3.400   0.5490   0.03834   0.02675  -0.0620   0.7500   0.9999
   3.300   0.5369   0.03804   0.02643  -0.0619   0.7568   0.9999
   3.200   0.5282   0.03760   0.02597  -0.0622   0.7641   0.9999
   3.100   0.5148   0.03734   0.02569  -0.0620   0.7708   0.9999
   3.000   0.5062   0.03690   0.02523  -0.0622   0.7783   0.9999
   2.900   0.4918   0.03666   0.02497  -0.0618   0.7851   0.9999
   2.800   0.4828   0.03624   0.02453  -0.0619   0.7925   0.9999
   2.700   0.4675   0.03600   0.02428  -0.0614   0.7994   0.9999
   2.600   0.4577   0.03560   0.02387  -0.0614   0.8069   0.9999
   2.500   0.4418   0.03536   0.02361  -0.0607   0.8139   0.9999
   2.400   0.4306   0.03500   0.02323  -0.0605   0.8214   0.9999
   2.300   0.4147   0.03474   0.02296  -0.0596   0.8285   0.9999
   2.200   0.4015   0.03441   0.02263  -0.0591   0.8361   0.9999
   2.100   0.3861   0.03412   0.02233  -0.0582   0.8434   0.9999
   2.000   0.3699   0.03383   0.02203  -0.0572   0.8508   0.9999
   1.900   0.3555   0.03350   0.02170  -0.0563   0.8585   0.9999
   1.800   0.3353   0.03325   0.02144  -0.0545   0.8658   0.9999
   1.700   0.3210   0.03291   0.02110  -0.0536   0.8736   0.9999
   1.600   0.3008   0.03264   0.02083  -0.0518   0.8809   0.9999
   1.500   0.2836   0.03232   0.02052  -0.0503   0.8886   0.9999
   1.400   0.2661   0.03200   0.02021  -0.0488   0.8963   0.9999
   1.300   0.2462   0.03168   0.01991  -0.0468   0.9038   0.9999
   1.200   0.2296   0.03134   0.01959  -0.0454   0.9117   0.9999
   1.100   0.2087   0.03101   0.01928  -0.0432   0.9191   0.9999
   1.000   0.1895   0.03067   0.01897  -0.0412   0.9268   0.9999
   0.900   0.1710   0.03032   0.01865  -0.0393   0.9347   0.9999
   0.800   0.1489   0.02995   0.01832  -0.0367   0.9421   0.9999
   0.700   0.1290   0.02958   0.01799  -0.0345   0.9499   0.9999
   0.600   0.1073   0.02920   0.01766  -0.0319   0.9574   0.9999
   0.500   0.0850   0.02879   0.01731  -0.0291   0.9649   0.9999
   0.400   0.0633   0.02839   0.01697  -0.0264   0.9725   0.9999
   0.300   0.0399   0.02796   0.01661  -0.0233   0.9799   0.9999
   0.200   0.0157   0.02751   0.01624  -0.0201   0.9872   0.9999
   0.100  -0.0091   0.02704   0.01586  -0.0167   0.9945   0.9999
  -0.000  -0.0313   0.02658   0.01550  -0.0138   1.0001   0.9999
  -0.100  -0.0377   0.02626   0.01523  -0.0137   1.0001   0.9999
  -0.200  -0.0440   0.02594   0.01497  -0.0137   1.0001   0.9999
  -0.300  -0.0503   0.02564   0.01473  -0.0137   1.0001   0.9999
  -0.400  -0.0565   0.02534   0.01451  -0.0137   1.0001   0.9999
  -0.500  -0.0627   0.02506   0.01429  -0.0137   1.0001   0.9999
  -0.600  -0.0688   0.02478   0.01410  -0.0137   1.0001   0.9999
  -0.700  -0.0749   0.02452   0.01391  -0.0138   1.0001   0.9999
  -0.800  -0.0809   0.02427   0.01374  -0.0139   1.0001   0.9999
  -0.900  -0.0867   0.02403   0.01358  -0.0140   1.0001   0.9999
  -1.000  -0.0925   0.02380   0.01344  -0.0142   1.0001   0.9999
  -1.100  -0.0981   0.02358   0.01331  -0.0143   1.0001   0.9999
  -1.200  -0.1034   0.02338   0.01320  -0.0146   1.0001   0.9999
  -1.300  -0.1086   0.02318   0.01310  -0.0148   1.0001   0.9999
  -1.400  -0.1134   0.02300   0.01301  -0.0151   1.0001   0.9999
  -1.500  -0.1178   0.02284   0.01295  -0.0155   1.0001   0.9999
  -1.600  -0.1217   0.02269   0.01291  -0.0159   1.0001   0.9999
  -1.700  -0.1249   0.02256   0.01289  -0.0165   1.0001   0.9999
  -1.800  -0.1270   0.02246   0.01290  -0.0171   1.0001   0.9999
  -1.900  -0.1276   0.02238   0.01293  -0.0180   1.0001   0.9999
  -2.000  -0.1259   0.02235   0.01299  -0.0191   1.0001   0.9999
  -2.100  -0.1208   0.02236   0.01310  -0.0207   1.0001   0.9999
  -2.200  -0.1115   0.02244   0.01324  -0.0227   1.0001   0.9999
  -2.300  -0.0972   0.02260   0.01340  -0.0254   1.0001   0.9999
  -2.400  -0.0800   0.02281   0.01358  -0.0283   1.0001   0.9999
  -2.500  -0.0634   0.02305   0.01379  -0.0309   1.0001   0.9999
  -2.600  -0.0496   0.02334   0.01403  -0.0330   1.0001   0.9999
  -2.700  -0.1201   0.02394   0.01505  -0.0203   1.0001   0.9710
  -2.800  -0.2949   0.02309   0.01519   0.0048   1.0001   0.8535
  -2.900  -0.3070   0.02310   0.01517   0.0034   1.0001   0.8111
  -3.000  -0.3124   0.02321   0.01521   0.0012   1.0001   0.7760
  -3.100  -0.3163   0.02335   0.01527  -0.0012   1.0001   0.7443
  -3.200  -0.3200   0.02353   0.01535  -0.0035   1.0001   0.7135
  -3.300  -0.3238   0.02372   0.01545  -0.0056   1.0001   0.6838
  -3.400  -0.3279   0.02392   0.01555  -0.0077   1.0001   0.6547
  -3.500  -0.3324   0.02415   0.01567  -0.0096   1.0001   0.6260
  -3.600  -0.3371   0.02438   0.01580  -0.0114   1.0001   0.5975
  -3.700  -0.3422   0.02464   0.01594  -0.0131   1.0001   0.5694
  -3.800  -0.3474   0.02491   0.01609  -0.0147   1.0001   0.5414
  -3.900  -0.3530   0.02520   0.01626  -0.0162   1.0001   0.5135
  -4.000  -0.3588   0.02552   0.01648  -0.0176   1.0001   0.4859
  -4.100  -0.3648   0.02586   0.01669  -0.0190   1.0001   0.4589
  -4.200  -0.3709   0.02623   0.01694  -0.0202   1.0001   0.4327
  -4.300  -0.3772   0.02663   0.01720  -0.0215   1.0001   0.4074
  -4.400  -0.3839   0.02708   0.01756  -0.0225   1.0001   0.3819
  -4.500  -0.3909   0.02757   0.01792  -0.0235   1.0001   0.3575
  -4.600  -0.3981   0.02808   0.01832  -0.0245   1.0001   0.3340
  -4.700  -0.4053   0.02861   0.01870  -0.0254   1.0001   0.3123
  -4.800  -0.4127   0.02921   0.01925  -0.0262   1.0001   0.2910
  -4.900  -0.4204   0.02984   0.01978  -0.0270   1.0001   0.2715
  -5.000  -0.4282   0.03050   0.02037  -0.0277   1.0001   0.2539
  -5.100  -0.4363   0.03122   0.02103  -0.0284   1.0001   0.2380
  -5.200  -0.4447   0.03199   0.02178  -0.0290   1.0001   0.2241
  -5.300  -0.4533   0.03281   0.02259  -0.0295   1.0001   0.2120
  -5.400  -0.4620   0.03370   0.02353  -0.0300   1.0001   0.2014
  -5.500  -0.4708   0.03463   0.02451  -0.0305   1.0001   0.1924
  -5.600  -0.4798   0.03557   0.02546  -0.0309   1.0001   0.1846
  -5.700  -0.4886   0.03668   0.02673  -0.0312   1.0001   0.1779
  -5.800  -0.4975   0.03773   0.02783  -0.0316   1.0001   0.1719
  -5.900  -0.5063   0.03884   0.02902  -0.0319   1.0001   0.1668
  -6.000  -0.5148   0.04011   0.03046  -0.0322   1.0001   0.1624
  -6.100  -0.5228   0.04155   0.03213  -0.0324   1.0001   0.1589
  -6.200  -0.5307   0.04296   0.03370  -0.0326   1.0001   0.1559
  -6.300  -0.5391   0.04420   0.03499  -0.0329   1.0001   0.1527
  -6.400  -0.5453   0.04607   0.03719  -0.0328   1.0001   0.1511
  -6.500  -0.5522   0.04768   0.03896  -0.0329   1.0001   0.1493
  -6.600  -0.5590   0.04929   0.04071  -0.0330   1.0001   0.1478
  -6.700  -0.5640   0.05131   0.04297  -0.0328   1.0001   0.1473
  -6.800  -0.5685   0.05337   0.04523  -0.0326   1.0001   0.1472
  -6.900  -0.5726   0.05547   0.04752  -0.0323   1.0001   0.1473
  -7.000  -0.5766   0.05756   0.04975  -0.0320   1.0001   0.1477
  -7.100  -0.5805   0.05962   0.05193  -0.0317   1.0001   0.1481
  -7.200  -0.5778   0.06285   0.05544  -0.0302   1.0001   0.1516
  -7.300  -0.5796   0.06521   0.05791  -0.0295   1.0001   0.1533
  -7.600  -0.5702   0.07469   0.06772  -0.0241   1.0001   0.1672
  25.000   1.1469   0.32119   0.31339  -0.1542   0.1004   0.9999
  24.900   1.1450   0.32084   0.31304  -0.1527   0.1011   0.9999
  24.800   1.1407   0.31894   0.31114  -0.1521   0.1019   0.9999
  24.700   1.1370   0.31758   0.30977  -0.1513   0.1030   0.9999
  24.600   1.1340   0.31663   0.30880  -0.1503   0.1042   0.9999
  24.500   1.1319   0.31612   0.30829  -0.1489   0.1050   0.9999
  24.400   1.1284   0.31467   0.30684  -0.1480   0.1057   0.9999
  24.300   1.1243   0.31310   0.30526  -0.1474   0.1069   0.9999
  24.200   1.1211   0.31204   0.30419  -0.1464   0.1081   0.9999
  24.100   1.1189   0.31144   0.30359  -0.1450   0.1091   0.9999
  24.000   1.1157   0.31021   0.30236  -0.1440   0.1098   0.9999
  23.900   1.1115   0.30856   0.30070  -0.1434   0.1110   0.9999
  23.800   1.1083   0.30749   0.29962  -0.1424   0.1123   0.9999
  23.700   1.1062   0.30694   0.29908  -0.1410   0.1133   0.9999
  23.600   1.1026   0.30544   0.29758  -0.1402   0.1141   0.9999
  23.500   1.0984   0.30392   0.29604  -0.1396   0.1153   0.9999
  23.400   1.0954   0.30291   0.29502  -0.1385   0.1167   0.9999
  23.300   1.0935   0.30246   0.29457  -0.1371   0.1176   0.9999
  23.200   1.0893   0.30066   0.29278  -0.1365   0.1186   0.9999
  23.100   1.0853   0.29924   0.29134  -0.1358   0.1200   0.9999
  23.000   1.0828   0.29846   0.29055  -0.1346   0.1213   0.9999
  22.900   1.0805   0.29766   0.28977  -0.1333   0.1221   0.9999
  22.800   1.0757   0.29575   0.28784  -0.1328   0.1234   0.9999
  22.700   1.0724   0.29464   0.28672  -0.1319   0.1250   0.9999
  22.600   1.0706   0.29412   0.28621  -0.1305   0.1260   0.9999
  22.500   1.0662   0.29233   0.28441  -0.1299   0.1271   0.9999
  22.400   1.0624   0.29095   0.28302  -0.1292   0.1286   0.9999
  22.300   1.0601   0.29022   0.28229  -0.1279   0.1300   0.9999
  22.200   1.0570   0.28902   0.28110  -0.1269   0.1309   0.9999
  22.100   1.0524   0.28734   0.27940  -0.1264   0.1325   0.9999
  22.000   1.0498   0.28645   0.27851  -0.1253   0.1340   0.9999
  21.900   1.0476   0.28559   0.27766  -0.1240   0.1350   0.9999
  21.800   1.0426   0.28371   0.27576  -0.1236   0.1365   0.9999
  21.700   1.0398   0.28273   0.27477  -0.1226   0.1382   0.9999
  21.600   1.0380   0.28206   0.27412  -0.1212   0.1392   0.9999
  21.500   1.0327   0.28005   0.27209  -0.1209   0.1408   0.9999
  21.400   1.0298   0.27905   0.27109  -0.1199   0.1425   0.9999
  21.300   1.0280   0.27829   0.27034  -0.1186   0.1436   0.9999
  21.200   1.0227   0.27633   0.26836  -0.1182   0.1453   0.9999
  21.100   1.0202   0.27544   0.26747  -0.1171   0.1470   0.9999
  21.000   1.0175   0.27432   0.26636  -0.1161   0.1482   0.9999
  20.900   1.0127   0.27261   0.26463  -0.1156   0.1500   0.9999
  20.800   1.0109   0.27192   0.26394  -0.1144   0.1516   0.9999
  20.700   1.0068   0.27029   0.26231  -0.1137   0.1530   0.9999
  20.600   1.0029   0.26893   0.26094  -0.1130   0.1550   0.9999
  20.500   1.0020   0.26845   0.26047  -0.1115   0.1563   0.9999
  20.400   0.9963   0.26633   0.25834  -0.1113   0.1581   0.9999
  20.300   0.9937   0.26540   0.25740  -0.1102   0.1601   0.9999
  20.200   0.9908   0.26413   0.25614  -0.1093   0.1614   0.9999
  20.100   0.9863   0.26256   0.25456  -0.1087   0.1636   0.9999
