  
       XFOIL         Version 6.99
  
 Calculated polar for: s1075                                           
  
 1 1 Reynolds number fixed          Mach number fixed         
  
 xtrf =   1.000 (top)        1.000 (bottom)  
 Mach =   0.000     Re =     0.100 e 6     Ncrit =   9.000
  
   alpha    CL        CD       CDp       CM     Top_Xtr  Bot_Xtr
  ------ -------- --------- --------- -------- -------- --------
  20.000   0.6719   0.22770   0.22317  -0.0580   0.0813   0.9999
  19.900   0.6685   0.22651   0.22196  -0.0580   0.0822   0.9999
  19.800   0.6673   0.22537   0.22081  -0.0576   0.0837   0.9999
  19.700   0.6691   0.22418   0.21962  -0.0568   0.0847   0.9999
  19.600   0.6679   0.22286   0.21830  -0.0564   0.0855   0.9999
  19.500   0.6650   0.22174   0.21717  -0.0563   0.0868   0.9999
  19.400   0.6654   0.22059   0.21602  -0.0557   0.0883   0.9999
  19.200   0.6636   0.21812   0.21354  -0.0549   0.0902   0.9999
  19.100   0.6626   0.21701   0.21242  -0.0545   0.0917   0.9999
  19.000   0.6656   0.21584   0.21125  -0.0535   0.0928   0.9999
  18.900   0.6624   0.21454   0.20994  -0.0535   0.0939   0.9999
  18.800   0.6607   0.21345   0.20884  -0.0532   0.0955   0.9999
  18.700   0.6637   0.21230   0.20769  -0.0523   0.0968   0.9999
  18.600   0.6608   0.21100   0.20638  -0.0522   0.0979   0.9999
  18.500   0.6591   0.20991   0.20528  -0.0519   0.0997   0.9999
  18.400   0.6627   0.20877   0.20415  -0.0509   0.1010   0.9999
  18.300   0.6589   0.20748   0.20285  -0.0510   0.1022   0.9999
  18.200   0.6581   0.20640   0.20176  -0.0506   0.1041   0.9999
  18.100   0.6626   0.20527   0.20064  -0.0495   0.1052   0.9999
  18.000   0.6570   0.20402   0.19937  -0.0499   0.1069   0.9999
  17.900   0.6580   0.20293   0.19827  -0.0493   0.1087   0.9999
  17.800   0.6600   0.20169   0.19704  -0.0485   0.1097   0.9999
  17.700   0.6558   0.20058   0.19591  -0.0487   0.1119   0.9999
  17.600   0.6595   0.19948   0.19481  -0.0477   0.1133   0.9999
  17.500   0.6561   0.19823   0.19355  -0.0478   0.1148   0.9999
  17.400   0.6563   0.19715   0.19246  -0.0473   0.1169   0.9999
  17.100   0.6592   0.19377   0.18907  -0.0458   0.1217   0.9999
  17.000   0.6550   0.19252   0.18781  -0.0459   0.1234   0.9999
  16.900   0.6565   0.19147   0.18675  -0.0453   0.1255   0.9999
  16.700   0.6550   0.18918   0.18444  -0.0448   0.1290   0.9999
  16.600   0.6606   0.18811   0.18337  -0.0438   0.1303   0.9999
  16.500   0.6550   0.18689   0.18213  -0.0441   0.1324   0.9999
  16.400   0.6584   0.18583   0.18107  -0.0433   0.1342   0.9999
  16.300   0.6571   0.18460   0.17983  -0.0432   0.1358   0.9999
  16.200   0.6571   0.18357   0.17879  -0.0428   0.1381   0.9999
  16.100   0.6639   0.18249   0.17771  -0.0418   0.1390   0.9999
  16.000   0.6568   0.18132   0.17652  -0.0423   0.1417   0.9999
  15.900   0.6626   0.18026   0.17546  -0.0414   0.1431   0.9999
  15.800   0.6580   0.17906   0.17425  -0.0416   0.1452   0.9999
  15.700   0.6617   0.17802   0.17319  -0.0409   0.1471   0.9999
  15.600   0.6686   0.17690   0.17208  -0.0400   0.1477   0.9999
  15.500   0.6613   0.17579   0.17094  -0.0405   0.1509   0.9999
  15.400   0.6680   0.17469   0.16984  -0.0396   0.1518   0.9999
  15.300   0.6625   0.17357   0.16870  -0.0399   0.1545   0.9999
  15.200   0.6679   0.17249   0.16762  -0.0392   0.1559   0.9999
  15.100   0.6740   0.17131   0.16644  -0.0385   0.1563   0.9999
  15.000   0.6792   0.17007   0.16520  -0.0379   0.1564   0.9999
  14.800   0.6860   0.16740   0.16251  -0.0370   0.1564   0.9999
  14.700   0.6869   0.16595   0.16104  -0.0367   0.1561   0.9999
  14.600   0.6832   0.16484   0.15991  -0.0369   0.1580   0.9999
  14.500   1.2437   0.07457   0.06793   0.0035   0.0409   0.9999
  14.400   1.2504   0.07253   0.06575   0.0039   0.0411   0.9999
  14.300   1.2571   0.07053   0.06361   0.0043   0.0412   0.9999
  14.200   1.2645   0.06854   0.06147   0.0046   0.0414   0.9999
  13.900   1.2584   0.06488   0.05773   0.0040   0.0438   0.9999
  13.800   1.2634   0.06314   0.05583   0.0040   0.0442   0.9999
  13.600   1.2592   0.06079   0.05344   0.0035   0.0462   0.9999
  13.500   1.2608   0.05939   0.05193   0.0033   0.0470   0.9999
  13.400   1.2653   0.05777   0.05014   0.0031   0.0477   0.9999
  13.200   1.2591   0.05570   0.04806   0.0025   0.0503   0.9999
  13.100   1.2633   0.05417   0.04635   0.0022   0.0513   0.9999
  13.000   1.2567   0.05343   0.04573   0.0018   0.0531   0.9999
  12.900   1.2584   0.05212   0.04428   0.0014   0.0544   0.9999
  12.800   1.2549   0.05120   0.04340   0.0010   0.0562   0.9999
  12.700   1.2556   0.05001   0.04211   0.0006   0.0579   0.9999
  12.600   1.2528   0.04908   0.04121   0.0002   0.0598   0.9999
  12.500   1.2540   0.04790   0.03991  -0.0003   0.0617   0.9999
  12.400   1.2510   0.04703   0.03910  -0.0008   0.0640   0.9999
  12.300   1.2516   0.04591   0.03789  -0.0013   0.0661   0.9999
  12.200   1.2501   0.04499   0.03699  -0.0019   0.0686   0.9999
  12.100   1.2488   0.04405   0.03607  -0.0024   0.0712   0.9999
  12.000   1.2488   0.04304   0.03500  -0.0031   0.0739   0.9999
  11.900   1.2488   0.04209   0.03401  -0.0039   0.0768   0.9999
  11.800   1.2477   0.04122   0.03318  -0.0046   0.0799   0.9999
  11.700   1.2474   0.04032   0.03230  -0.0054   0.0832   0.9999
  11.600   1.2474   0.03944   0.03141  -0.0063   0.0866   0.9999
  11.500   1.2478   0.03858   0.03055  -0.0073   0.0903   0.9999
  11.400   1.2483   0.03776   0.02973  -0.0084   0.0942   0.9999
  11.300   1.2489   0.03698   0.02895  -0.0096   0.0983   0.9999
  11.200   1.2493   0.03623   0.02820  -0.0108   0.1026   0.9999
  11.100   1.2489   0.03547   0.02745  -0.0118   0.1076   0.9999
  11.000   1.2484   0.03472   0.02667  -0.0129   0.1131   0.9999
  10.900   1.2470   0.03401   0.02599  -0.0139   0.1187   0.9999
  10.800   1.2454   0.03332   0.02531  -0.0148   0.1248   0.9999
  10.700   1.2435   0.03266   0.02464  -0.0158   0.1313   0.9999
  10.600   1.2411   0.03203   0.02402  -0.0167   0.1380   0.9999
  10.500   1.2381   0.03145   0.02345  -0.0176   0.1450   0.9999
  10.400   1.2350   0.03088   0.02285  -0.0184   0.1525   0.9999
  10.300   1.2312   0.03036   0.02234  -0.0192   0.1599   0.9999
  10.200   1.2270   0.02988   0.02187  -0.0199   0.1675   0.9999
  10.100   1.2225   0.02942   0.02139  -0.0206   0.1753   0.9999
  10.000   1.2177   0.02898   0.02092  -0.0213   0.1834   0.9999
   9.900   1.2124   0.02858   0.02050  -0.0220   0.1914   0.9999
   9.800   1.2065   0.02822   0.02015  -0.0226   0.1992   0.9999
   9.700   1.2005   0.02786   0.01978  -0.0232   0.2071   0.9999
   9.600   1.1942   0.02752   0.01941  -0.0237   0.2152   0.9999
   9.500   1.1877   0.02719   0.01902  -0.0243   0.2234   0.9999
   9.400   1.1804   0.02690   0.01876  -0.0247   0.2309   0.9999
   9.300   1.1731   0.02660   0.01844  -0.0252   0.2385   0.9999
   9.200   1.1657   0.02630   0.01809  -0.0256   0.2464   0.9999
   9.100   1.1576   0.02604   0.01783  -0.0260   0.2537   0.9999
   9.000   1.1496   0.02576   0.01753  -0.0264   0.2611   0.9999
   8.900   1.1415   0.02549   0.01721  -0.0268   0.2686   0.9999
   8.800   1.1328   0.02525   0.01698  -0.0271   0.2756   0.9999
   8.700   1.1245   0.02499   0.01666  -0.0274   0.2831   0.9999
   8.600   1.1155   0.02477   0.01645  -0.0277   0.2899   0.9999
   8.500   1.1068   0.02452   0.01615  -0.0280   0.2972   0.9999
   8.400   1.0976   0.02431   0.01594  -0.0283   0.3040   0.9999
   8.300   1.0887   0.02408   0.01566  -0.0286   0.3112   0.9999
   8.200   1.0793   0.02387   0.01546  -0.0288   0.3178   0.9999
   8.100   1.0702   0.02364   0.01518  -0.0291   0.3249   0.9999
   8.000   1.0605   0.02345   0.01499  -0.0293   0.3314   0.9999
   7.900   1.0513   0.02322   0.01471  -0.0295   0.3385   0.9999
   7.800   1.0414   0.02304   0.01454  -0.0297   0.3448   0.9999
   7.700   1.0318   0.02283   0.01431  -0.0300   0.3515   0.9999
   7.600   1.0221   0.02264   0.01409  -0.0302   0.3581   0.9999
   7.500   1.0121   0.02245   0.01389  -0.0303   0.3644   0.9999
   7.400   1.0025   0.02224   0.01363  -0.0305   0.3713   0.9999
   7.300   0.9923   0.02207   0.01348  -0.0307   0.3774   0.9999
   7.200   0.9823   0.02188   0.01327  -0.0309   0.3838   0.9999
   7.100   0.9724   0.02169   0.01304  -0.0311   0.3904   0.9999
   7.000   0.9622   0.02152   0.01288  -0.0312   0.3964   0.9999
   6.900   0.9521   0.02134   0.01268  -0.0314   0.4029   0.9999
   6.800   0.9420   0.02116   0.01248  -0.0315   0.4093   0.9999
   6.700   0.9316   0.02100   0.01232  -0.0317   0.4153   0.9999
   6.600   0.9214   0.02083   0.01212  -0.0319   0.4217   0.9999
   6.500   0.9112   0.02066   0.01193  -0.0320   0.4280   0.9999
   6.400   0.9007   0.02050   0.01179  -0.0321   0.4340   0.9999
   6.300   0.8904   0.02034   0.01161  -0.0323   0.4403   0.9999
   6.200   0.8801   0.02018   0.01142  -0.0324   0.4467   0.9999
   6.100   0.8696   0.02003   0.01128  -0.0326   0.4525   0.9999
   6.000   0.8592   0.01988   0.01112  -0.0327   0.4587   0.9999
   5.900   0.8488   0.01972   0.01093  -0.0328   0.4652   0.9999
   5.800   0.8383   0.01958   0.01081  -0.0330   0.4710   0.9999
   5.700   0.8277   0.01944   0.01066  -0.0331   0.4770   0.9999
   5.600   0.8173   0.01929   0.01049  -0.0332   0.4834   0.9999
   5.500   0.8067   0.01915   0.01036  -0.0333   0.4894   0.9999
   5.400   0.7961   0.01902   0.01024  -0.0335   0.4952   0.9999
   5.300   0.7856   0.01889   0.01009  -0.0336   0.5014   0.9999
   5.200   0.7751   0.01875   0.00994  -0.0337   0.5077   0.9999
   5.100   0.7644   0.01863   0.00983  -0.0339   0.5135   0.9999
   5.000   0.7538   0.01850   0.00972  -0.0340   0.5194   0.9999
   4.900   0.7433   0.01837   0.00957  -0.0341   0.5258   0.9999
   4.800   0.7326   0.01825   0.00946  -0.0343   0.5318   0.9999
   4.700   0.7220   0.01814   0.00936  -0.0344   0.5376   0.9999
   4.600   0.7114   0.01803   0.00925  -0.0345   0.5437   0.9999
   4.500   0.7008   0.01790   0.00911  -0.0346   0.5501   0.9999
   4.400   0.6901   0.01780   0.00903  -0.0348   0.5558   0.9999
   4.300   0.6795   0.01770   0.00894  -0.0350   0.5616   0.9999
   4.200   0.6689   0.01758   0.00883  -0.0351   0.5678   0.9999
   4.100   0.6583   0.01748   0.00872  -0.0352   0.5740   0.9999
   4.000   0.6476   0.01738   0.00865  -0.0354   0.5797   0.9999
   3.900   0.6370   0.01729   0.00857  -0.0356   0.5856   0.9999
   3.800   0.6264   0.01718   0.00846  -0.0357   0.5919   0.9999
   3.700   0.6158   0.01709   0.00839  -0.0359   0.5978   0.9999
   3.600   0.6052   0.01700   0.00833  -0.0361   0.6036   0.9999
   3.500   0.5946   0.01691   0.00825  -0.0362   0.6096   0.9999
   3.400   0.5840   0.01681   0.00815  -0.0364   0.6160   0.9999
   3.300   0.5735   0.01673   0.00810  -0.0366   0.6217   0.9999
   3.200   0.5629   0.01665   0.00805  -0.0368   0.6274   0.9999
   3.100   0.5524   0.01657   0.00798  -0.0370   0.6334   0.9999
   3.000   0.5418   0.01648   0.00789  -0.0371   0.6398   0.9999
   2.900   0.5313   0.01640   0.00785  -0.0373   0.6454   0.9999
   2.800   0.5209   0.01633   0.00781  -0.0376   0.6511   0.9999
   2.700   0.5104   0.01625   0.00775  -0.0378   0.6571   0.9999
   2.600   0.5000   0.01617   0.00768  -0.0380   0.6635   0.9999
   2.500   0.4896   0.01610   0.00765  -0.0382   0.6691   0.9999
   2.400   0.4792   0.01604   0.00761  -0.0385   0.6748   0.9999
   2.300   0.4689   0.01596   0.00756  -0.0387   0.6808   0.9999
   2.200   0.4585   0.01588   0.00750  -0.0389   0.6872   0.9999
   2.100   0.4483   0.01582   0.00748  -0.0392   0.6928   0.9999
   2.000   0.4381   0.01576   0.00745  -0.0395   0.6985   0.9999
   1.900   0.4279   0.01569   0.00741  -0.0398   0.7045   0.9999
   1.800   0.4177   0.01561   0.00735  -0.0400   0.7110   0.9999
   1.700   0.4076   0.01555   0.00734  -0.0404   0.7166   0.9999
   1.600   0.3976   0.01549   0.00732  -0.0407   0.7223   0.9999
   1.500   0.3876   0.01543   0.00729  -0.0411   0.7283   0.9999
   1.400   0.3776   0.01536   0.00724  -0.0413   0.7348   0.9999
   1.300   0.3677   0.01530   0.00723  -0.0417   0.7405   0.9999
   1.200   0.3579   0.01525   0.00722  -0.0421   0.7463   0.9999
   1.100   0.3482   0.01519   0.00720  -0.0425   0.7523   0.9999
   1.000   0.3384   0.01512   0.00717  -0.0429   0.7588   0.9999
   0.900   0.3289   0.01507   0.00717  -0.0433   0.7645   0.9999
   0.800   0.3194   0.01502   0.00717  -0.0438   0.7705   0.9999
   0.700   0.3099   0.01496   0.00715  -0.0442   0.7767   0.9999
   0.600   0.3006   0.01490   0.00714  -0.0447   0.7831   0.9999
   0.500   0.2914   0.01486   0.00715  -0.0452   0.7890   0.9999
   0.400   0.2822   0.01481   0.00715  -0.0457   0.7952   0.9999
   0.300   0.2731   0.01475   0.00714  -0.0462   0.8019   0.9999
   0.200   0.2642   0.01471   0.00716  -0.0468   0.8078   0.9999
   0.100   0.2553   0.01467   0.00717  -0.0474   0.8141   0.9999
  -0.000   0.2465   0.01462   0.00717  -0.0479   0.8209   0.9999
  -0.100   0.2379   0.01458   0.00719  -0.0485   0.8270   0.9999
  -0.200   0.2294   0.01455   0.00722  -0.0492   0.8336   0.9999
  -0.300   0.2209   0.01451   0.00724  -0.0498   0.8404   0.9999
  -0.400   0.2125   0.01449   0.00727  -0.0504   0.8468   0.9999
  -0.500   0.2041   0.01445   0.00730  -0.0510   0.8541   0.9999
  -0.600   0.1958   0.01444   0.00735  -0.0517   0.8606   0.9999
  -0.700   0.1876   0.01442   0.00739  -0.0523   0.8680   0.9999
  -0.800   0.1793   0.01442   0.00746  -0.0529   0.8749   0.9999
  -0.900   0.1711   0.01442   0.00752  -0.0535   0.8826   0.9999
  -1.000   0.1624   0.01444   0.00761  -0.0540   0.8896   0.9999
  -1.100   0.1539   0.01446   0.00770  -0.0544   0.8976   0.9999
  -1.200   0.1448   0.01451   0.00782  -0.0548   0.9053   0.9999
  -1.300   0.1351   0.01458   0.00796  -0.0549   0.9131   0.9999
  -1.400   0.1250   0.01467   0.00812  -0.0548   0.9215   0.9999
  -1.500   0.1138   0.01480   0.00832  -0.0544   0.9298   0.9999
  -1.600   0.0864   0.01488   0.00849  -0.0510   0.9352   0.9925
  -1.700   0.0517   0.01488   0.00859  -0.0463   0.9382   0.9800
  -1.800   0.0182   0.01485   0.00866  -0.0420   0.9412   0.9649
  -1.900  -0.0128   0.01480   0.00870  -0.0383   0.9447   0.9456
  -2.000  -0.0436   0.01475   0.00873  -0.0348   0.9473   0.9222
  -2.100  -0.0704   0.01471   0.00873  -0.0322   0.9505   0.8937
  -2.200  -0.0919   0.01471   0.00873  -0.0308   0.9544   0.8619
  -2.300  -0.1099   0.01476   0.00875  -0.0300   0.9585   0.8292
  -2.400  -0.1276   0.01485   0.00878  -0.0293   0.9620   0.7956
  -2.500  -0.1450   0.01497   0.00883  -0.0286   0.9656   0.7625
  -2.600  -0.1620   0.01509   0.00888  -0.0279   0.9695   0.7297
  -2.700  -0.1789   0.01523   0.00894  -0.0270   0.9735   0.6969
  -2.800  -0.1960   0.01538   0.00899  -0.0261   0.9775   0.6642
  -2.900  -0.2134   0.01554   0.00905  -0.0250   0.9815   0.6310
  -3.000  -0.2312   0.01570   0.00911  -0.0238   0.9854   0.5974
  -3.100  -0.2492   0.01587   0.00917  -0.0225   0.9893   0.5631
  -3.200  -0.2675   0.01605   0.00923  -0.0211   0.9930   0.5282
  -3.300  -0.2861   0.01623   0.00929  -0.0196   0.9966   0.4926
  -3.400  -0.3046   0.01643   0.00937  -0.0180   1.0001   0.4566
  -3.500  -0.3124   0.01648   0.00932  -0.0183   1.0001   0.4318
  -3.600  -0.3203   0.01655   0.00929  -0.0186   1.0001   0.4064
  -3.700  -0.3278   0.01663   0.00927  -0.0189   1.0001   0.3815
  -3.800  -0.3351   0.01674   0.00927  -0.0193   1.0001   0.3568
  -3.900  -0.3423   0.01686   0.00928  -0.0197   1.0001   0.3325
  -4.000  -0.3492   0.01700   0.00930  -0.0201   1.0001   0.3083
  -4.100  -0.3561   0.01715   0.00934  -0.0206   1.0001   0.2846
  -4.200  -0.3628   0.01732   0.00940  -0.0211   1.0001   0.2615
  -4.300  -0.3694   0.01752   0.00948  -0.0216   1.0001   0.2391
  -4.400  -0.3759   0.01775   0.00959  -0.0221   1.0001   0.2182
  -4.500  -0.3824   0.01801   0.00974  -0.0227   1.0001   0.1979
  -4.600  -0.3890   0.01831   0.00993  -0.0233   1.0001   0.1788
  -4.700  -0.3954   0.01865   0.01016  -0.0239   1.0001   0.1614
  -4.800  -0.4022   0.01903   0.01044  -0.0245   1.0001   0.1453
  -4.900  -0.4091   0.01946   0.01076  -0.0251   1.0001   0.1314
  -5.000  -0.4162   0.01990   0.01110  -0.0257   1.0001   0.1199
  -5.100  -0.4237   0.02035   0.01149  -0.0263   1.0001   0.1103
  -5.200  -0.4313   0.02081   0.01185  -0.0268   1.0001   0.1027
  -5.300  -0.4395   0.02128   0.01231  -0.0273   1.0001   0.0957
  -5.400  -0.4477   0.02177   0.01269  -0.0278   1.0001   0.0900
  -5.500  -0.4565   0.02228   0.01320  -0.0282   1.0001   0.0849
  -5.600  -0.4656   0.02281   0.01372  -0.0286   1.0001   0.0804
  -5.700  -0.4748   0.02336   0.01425  -0.0289   1.0001   0.0765
  -5.800  -0.4842   0.02392   0.01479  -0.0292   1.0001   0.0731
  -5.900  -0.4938   0.02455   0.01550  -0.0296   1.0001   0.0699
  -6.000  -0.5036   0.02523   0.01623  -0.0299   1.0001   0.0673
  -6.100  -0.5133   0.02586   0.01680  -0.0301   1.0001   0.0650
  -6.200  -0.5232   0.02666   0.01778  -0.0304   1.0001   0.0631
  -6.300  -0.5331   0.02736   0.01847  -0.0306   1.0001   0.0613
  -6.400  -0.5429   0.02825   0.01950  -0.0309   1.0001   0.0599
  -6.500  -0.5525   0.02916   0.02058  -0.0313   1.0001   0.0584
  -6.600  -0.5623   0.02995   0.02136  -0.0314   1.0001   0.0573
  -6.700  -0.5717   0.03100   0.02259  -0.0317   1.0001   0.0565
  -6.800  -0.5804   0.03222   0.02409  -0.0321   1.0001   0.0558
  -6.900  -0.5890   0.03347   0.02558  -0.0325   1.0001   0.0553
  -7.000  -0.5973   0.03476   0.02709  -0.0328   1.0001   0.0550
  -7.100  -0.6051   0.03617   0.02872  -0.0332   1.0001   0.0549
  -7.200  -0.6122   0.03772   0.03053  -0.0336   1.0001   0.0549
  -7.300  -0.6186   0.03940   0.03246  -0.0339   1.0001   0.0551
  -7.400  -0.6244   0.04120   0.03450  -0.0342   1.0001   0.0556
  -7.500  -0.6301   0.04298   0.03648  -0.0345   1.0001   0.0560
  -7.600  -0.6361   0.04463   0.03827  -0.0348   1.0001   0.0565
  -7.700  -0.6419   0.04632   0.04009  -0.0350   1.0001   0.0571
  -7.800  -0.6358   0.05098   0.04538  -0.0352   1.0001   0.0617
  -8.000  -0.6381   0.05691   0.05166  -0.0351   1.0001   0.0688
  -8.300  -0.5526   0.08769   0.08337  -0.0122   1.0001   0.1434
  -8.400  -0.5399   0.09026   0.08589  -0.0087   1.0001   0.1413
  -8.500  -0.5459   0.09144   0.08707  -0.0094   1.0001   0.1395
  -8.600  -0.5392   0.09371   0.08929  -0.0072   1.0001   0.1380
  -8.700  -0.5375   0.09545   0.09101  -0.0062   1.0001   0.1358
  -8.800  -0.5466   0.09655   0.09211  -0.0075   1.0001   0.1344
  -8.900  -0.5344   0.09909   0.09460  -0.0041   1.0001   0.1326
  -9.000  -0.5385   0.10043   0.09594  -0.0042   1.0001   0.1306
  -9.100  -0.5384   0.10221   0.09770  -0.0035   1.0001   0.1294
  -9.200  -0.5336   0.10416   0.09961  -0.0017   1.0001   0.1273
  -9.300  -0.5414   0.10532   0.10078  -0.0026   1.0001   0.1257
  -9.400  -0.5349   0.10749   0.10291  -0.0005   1.0001   0.1244
  -9.500  -0.5344   0.10913   0.10453   0.0004   1.0001   0.1223
  -9.600  -0.5440   0.11027   0.10568  -0.0009   1.0001   0.1209
  -9.700  -0.5345   0.11253   0.10790   0.0019   1.0001   0.1196
  -9.800  -0.5357   0.11406   0.10942   0.0024   1.0001   0.1177
  -9.900  -0.5433   0.11539   0.11074   0.0016   1.0001   0.1163
 -10.000  -0.5357   0.11747   0.11279   0.0041   1.0001   0.1149
