  
       XFOIL         Version 6.99
  
 Calculated polar for: s1075                                           
  
 1 1 Reynolds number fixed          Mach number fixed         
  
 xtrf =   1.000 (top)        1.000 (bottom)  
 Mach =   0.000     Re =     0.090 e 6     Ncrit =   9.000
  
   alpha    CL        CD       CDp       CM     Top_Xtr  Bot_Xtr
  ------ -------- --------- --------- -------- -------- --------
  20.000   0.6715   0.22846   0.22368  -0.0580   0.0890   0.9999
  19.900   0.6673   0.22714   0.22235  -0.0581   0.0902   0.9999
  19.800   0.6662   0.22600   0.22120  -0.0577   0.0917   0.9999
  19.700   0.6681   0.22490   0.22010  -0.0568   0.0928   0.9999
  19.600   0.6660   0.22355   0.21874  -0.0566   0.0937   0.9999
  19.500   0.6637   0.22240   0.21759  -0.0564   0.0952   0.9999
  19.400   0.6649   0.22130   0.21648  -0.0557   0.0966   0.9999
  19.200   0.6616   0.21884   0.21401  -0.0551   0.0990   0.9999
  19.100   0.6623   0.21774   0.21290  -0.0545   0.1005   0.9999
  18.900   0.6596   0.21531   0.21046  -0.0538   0.1030   0.9999
  18.800   0.6605   0.21422   0.20937  -0.0532   0.1046   0.9999
  18.600   0.6578   0.21181   0.20694  -0.0526   0.1074   0.9999
  18.500   0.6597   0.21076   0.20589  -0.0518   0.1090   0.9999
  18.400   0.6582   0.20946   0.20459  -0.0515   0.1102   0.9999
  18.300   0.6564   0.20834   0.20345  -0.0513   0.1121   0.9999
  18.200   0.6600   0.20735   0.20246  -0.0503   0.1134   0.9999
  18.100   0.6554   0.20598   0.20108  -0.0505   0.1151   0.9999
  18.000   0.6562   0.20493   0.20003  -0.0499   0.1170   0.9999
  17.900   0.6580   0.20378   0.19888  -0.0492   0.1180   0.9999
  17.800   0.6540   0.20258   0.19766  -0.0493   0.1203   0.9999
  17.700   0.6577   0.20160   0.19668  -0.0484   0.1218   0.9999
  17.600   0.6535   0.20026   0.19532  -0.0485   0.1235   0.9999
  17.500   0.6548   0.19925   0.19431  -0.0479   0.1256   0.9999
  17.400   0.6551   0.19803   0.19309  -0.0475   0.1268   0.9999
  17.300   0.6527   0.19691   0.19195  -0.0474   0.1292   0.9999
  17.200   0.6579   0.19597   0.19102  -0.0464   0.1304   0.9999
  17.100   0.6518   0.19463   0.18966  -0.0467   0.1327   0.9999
  17.000   0.6555   0.19367   0.18869  -0.0459   0.1344   0.9999
  16.900   0.6521   0.19237   0.18739  -0.0459   0.1362   0.9999
  16.800   0.6536   0.19137   0.18638  -0.0454   0.1384   0.9999
  16.600   0.6524   0.18912   0.18410  -0.0448   0.1423   0.9999
  16.400   0.6517   0.18688   0.18184  -0.0442   0.1461   0.9999
  16.300   0.6576   0.18595   0.18092  -0.0433   0.1476   0.9999
  16.200   0.6518   0.18466   0.17961  -0.0435   0.1500   0.9999
  16.100   0.6569   0.18373   0.17868  -0.0427   0.1518   0.9999
  16.000   0.6523   0.18246   0.17739  -0.0429   0.1540   0.9999
  15.900   0.6566   0.18155   0.17647  -0.0422   0.1560   0.9999
  15.800   0.6534   0.18030   0.17521  -0.0422   0.1581   0.9999
  15.700   0.6567   0.17936   0.17426  -0.0417   0.1603   0.9999
  15.600   0.6549   0.17816   0.17305  -0.0416   0.1622   0.9999
  15.500   0.6574   0.17722   0.17210  -0.0411   0.1645   0.9999
  15.300   0.6588   0.17512   0.16997  -0.0406   0.1689   0.9999
  15.200   0.6580   0.17395   0.16880  -0.0404   0.1709   0.9999
  15.100   0.6607   0.17304   0.16787  -0.0400   0.1734   0.9999
  15.000   0.6601   0.17189   0.16671  -0.0399   0.1753   0.9999
  14.900   0.6630   0.17101   0.16582  -0.0396   0.1778   0.9999
  14.800   0.6708   0.17011   0.16492  -0.0389   0.1784   0.9999
  14.700   0.6657   0.16902   0.16380  -0.0391   0.1822   0.9999
  14.600   0.6734   0.16813   0.16291  -0.0385   0.1828   0.9999
  14.400   1.1431   0.07733   0.07097   0.0102   0.0508   0.9999
  14.300   1.1521   0.07498   0.06849   0.0106   0.0509   0.9999
  14.200   1.1607   0.07271   0.06610   0.0109   0.0511   0.9999
  14.100   1.1543   0.07180   0.06525   0.0105   0.0525   0.9999
  14.000   1.1574   0.07006   0.06345   0.0105   0.0532   0.9999
  13.900   1.1637   0.06804   0.06131   0.0106   0.0537   0.9999
  13.800   1.1703   0.06599   0.05913   0.0106   0.0541   0.9999
  13.700   1.1783   0.06388   0.05688   0.0106   0.0545   0.9999
  13.600   1.2640   0.06274   0.05535   0.0045   0.0507   0.9999
  13.500   1.2706   0.06103   0.05345   0.0043   0.0512   0.9999
  13.400   1.2622   0.06022   0.05275   0.0040   0.0529   0.9999
  13.300   1.2641   0.05882   0.05124   0.0037   0.0538   0.9999
  13.200   1.2693   0.05725   0.04949   0.0033   0.0545   0.9999
  13.100   1.2633   0.05635   0.04866   0.0030   0.0563   0.9999
  13.000   1.2648   0.05506   0.04726   0.0026   0.0575   0.9999
  12.800   1.2625   0.05282   0.04495   0.0018   0.0608   0.9999
  12.700   1.2671   0.05143   0.04336   0.0011   0.0619   0.9999
  12.600   1.2607   0.05063   0.04267   0.0008   0.0644   0.9999
  12.500   1.2620   0.04944   0.04136   0.0002   0.0662   0.9999
  12.400   1.2596   0.04850   0.04043  -0.0003   0.0685   0.9999
  12.300   1.2577   0.04752   0.03946  -0.0009   0.0709   0.9999
  12.200   1.2597   0.04640   0.03820  -0.0017   0.0731   0.9999
  12.100   1.2564   0.04554   0.03741  -0.0022   0.0760   0.9999
  12.000   1.2549   0.04461   0.03649  -0.0029   0.0788   0.9999
  11.900   1.2550   0.04363   0.03545  -0.0038   0.0818   0.9999
  11.800   1.2557   0.04269   0.03444  -0.0048   0.0848   0.9999
  11.700   1.2543   0.04184   0.03363  -0.0056   0.0883   0.9999
  11.600   1.2536   0.04100   0.03281  -0.0065   0.0919   0.9999
  11.500   1.2533   0.04018   0.03200  -0.0076   0.0957   0.9999
  11.400   1.2535   0.03939   0.03121  -0.0087   0.0997   0.9999
  11.300   1.2531   0.03857   0.03038  -0.0098   0.1043   0.9999
  11.200   1.2528   0.03776   0.02952  -0.0109   0.1091   0.9999
  11.100   1.2513   0.03700   0.02882  -0.0118   0.1143   0.9999
  11.000   1.2497   0.03628   0.02812  -0.0127   0.1199   0.9999
  10.900   1.2488   0.03552   0.02731  -0.0138   0.1260   0.9999
  10.800   1.2463   0.03487   0.02671  -0.0147   0.1322   0.9999
  10.700   1.2447   0.03417   0.02597  -0.0157   0.1390   0.9999
  10.600   1.2416   0.03359   0.02544  -0.0165   0.1457   0.9999
  10.500   1.2388   0.03299   0.02483  -0.0174   0.1529   0.9999
  10.400   1.2357   0.03242   0.02423  -0.0182   0.1605   0.9999
  10.300   1.2316   0.03193   0.02377  -0.0190   0.1679   0.9999
  10.200   1.2274   0.03145   0.02329  -0.0197   0.1757   0.9999
  10.100   1.2230   0.03098   0.02279  -0.0205   0.1837   0.9999
  10.000   1.2184   0.03054   0.02231  -0.0212   0.1919   0.9999
   9.900   1.2127   0.03016   0.02195  -0.0219   0.1999   0.9999
   9.800   1.2068   0.02980   0.02160  -0.0225   0.2078   0.9999
   9.700   1.2008   0.02945   0.02122  -0.0230   0.2159   0.9999
   9.600   1.1945   0.02909   0.02083  -0.0236   0.2240   0.9999
   9.500   1.1878   0.02876   0.02047  -0.0242   0.2321   0.9999
   9.400   1.1804   0.02848   0.02020  -0.0246   0.2398   0.9999
   9.300   1.1730   0.02817   0.01987  -0.0251   0.2475   0.9999
   9.200   1.1658   0.02785   0.01949  -0.0256   0.2555   0.9999
   9.100   1.1574   0.02760   0.01925  -0.0259   0.2628   0.9999
   9.000   1.1494   0.02732   0.01895  -0.0264   0.2703   0.9999
   8.900   1.1414   0.02704   0.01861  -0.0268   0.2780   0.9999
   8.800   1.1326   0.02680   0.01839  -0.0271   0.2850   0.9999
   8.700   1.1243   0.02653   0.01807  -0.0275   0.2926   0.9999
   8.600   1.1152   0.02631   0.01786  -0.0278   0.2996   0.9999
   8.500   1.1065   0.02606   0.01757  -0.0281   0.3069   0.9999
   8.400   1.0974   0.02584   0.01733  -0.0284   0.3139   0.9999
   8.300   1.0884   0.02561   0.01708  -0.0287   0.3210   0.9999
   8.200   1.0791   0.02539   0.01684  -0.0289   0.3279   0.9999
   8.100   1.0698   0.02517   0.01659  -0.0292   0.3349   0.9999
   8.000   1.0603   0.02496   0.01637  -0.0295   0.3416   0.9999
   7.900   1.0509   0.02473   0.01610  -0.0297   0.3486   0.9999
   7.800   1.0411   0.02454   0.01591  -0.0300   0.3551   0.9999
   7.700   1.0318   0.02431   0.01562  -0.0302   0.3621   0.9999
   7.600   1.0217   0.02413   0.01545  -0.0304   0.3684   0.9999
   7.500   1.0121   0.02391   0.01520  -0.0306   0.3752   0.9999
   7.400   1.0022   0.02372   0.01499  -0.0308   0.3816   0.9999
   7.300   0.9921   0.02353   0.01480  -0.0310   0.3880   0.9999
   7.200   0.9824   0.02332   0.01453  -0.0313   0.3948   0.9999
   7.100   0.9722   0.02315   0.01437  -0.0314   0.4009   0.9999
   7.000   0.9622   0.02296   0.01416  -0.0316   0.4074   0.9999
   6.900   0.9522   0.02276   0.01394  -0.0318   0.4139   0.9999
   6.800   0.9419   0.02260   0.01378  -0.0320   0.4200   0.9999
   6.700   0.9318   0.02241   0.01356  -0.0322   0.4266   0.9999
   6.600   0.9216   0.02223   0.01336  -0.0324   0.4329   0.9999
   6.500   0.9112   0.02207   0.01320  -0.0325   0.4389   0.9999
   6.400   0.9010   0.02189   0.01300  -0.0327   0.4454   0.9999
   6.300   0.8908   0.02172   0.01281  -0.0329   0.4516   0.9999
   6.200   0.8803   0.02157   0.01266  -0.0330   0.4576   0.9999
   6.100   0.8700   0.02140   0.01247  -0.0332   0.4640   0.9999
   6.000   0.8597   0.02123   0.01229  -0.0334   0.4703   0.9999
   5.900   0.8492   0.02109   0.01215  -0.0335   0.4762   0.9999
   5.800   0.8388   0.02093   0.01198  -0.0337   0.4825   0.9999
   5.700   0.8285   0.02077   0.01179  -0.0338   0.4889   0.9999
   5.600   0.8179   0.02063   0.01167  -0.0340   0.4947   0.9999
   5.500   0.8075   0.02049   0.01153  -0.0342   0.5008   0.9999
   5.400   0.7971   0.02032   0.01132  -0.0343   0.5074   0.9999
   5.300   0.7865   0.02020   0.01122  -0.0345   0.5131   0.9999
   5.200   0.7760   0.02007   0.01110  -0.0347   0.5191   0.9999
   5.100   0.7655   0.01993   0.01094  -0.0348   0.5254   0.9999
   5.000   0.7550   0.01979   0.01080  -0.0350   0.5316   0.9999
   4.900   0.7445   0.01968   0.01069  -0.0352   0.5374   0.9999
   4.800   0.7339   0.01955   0.01057  -0.0353   0.5435   0.9999
   4.700   0.7235   0.01941   0.01041  -0.0355   0.5500   0.9999
   4.600   0.7129   0.01931   0.01032  -0.0357   0.5557   0.9999
   4.500   0.7023   0.01919   0.01022  -0.0359   0.5616   0.9999
   4.400   0.6918   0.01907   0.01009  -0.0360   0.5680   0.9999
   4.300   0.6813   0.01895   0.00998  -0.0362   0.5741   0.9999
   4.200   0.6707   0.01885   0.00989  -0.0364   0.5798   0.9999
   4.100   0.6602   0.01875   0.00980  -0.0366   0.5858   0.9999
   4.000   0.6498   0.01862   0.00966  -0.0367   0.5924   0.9999
   3.900   0.6392   0.01853   0.00959  -0.0370   0.5981   0.9999
   3.800   0.6287   0.01844   0.00952  -0.0372   0.6039   0.9999
   3.700   0.6182   0.01834   0.00942  -0.0374   0.6101   0.9999
   3.600   0.6077   0.01823   0.00931  -0.0376   0.6164   0.9999
   3.500   0.5973   0.01814   0.00925  -0.0378   0.6221   0.9999
   3.400   0.5868   0.01806   0.00919  -0.0381   0.6280   0.9999
   3.300   0.5764   0.01796   0.00909  -0.0383   0.6342   0.9999
   3.200   0.5659   0.01786   0.00901  -0.0385   0.6403   0.9999
   3.100   0.5556   0.01779   0.00896  -0.0387   0.6460   0.9999
   3.000   0.5452   0.01770   0.00890  -0.0390   0.6519   0.9999
   2.900   0.5348   0.01760   0.00881  -0.0392   0.6583   0.9999
   2.800   0.5245   0.01752   0.00875  -0.0395   0.6642   0.9999
   2.700   0.5142   0.01745   0.00871  -0.0398   0.6699   0.9999
   2.600   0.5039   0.01737   0.00865  -0.0401   0.6759   0.9999
   2.500   0.4937   0.01727   0.00856  -0.0403   0.6825   0.9999
   2.400   0.4835   0.01721   0.00853  -0.0406   0.6881   0.9999
   2.300   0.4733   0.01714   0.00849  -0.0409   0.6938   0.9999
   2.200   0.4632   0.01706   0.00844  -0.0412   0.6999   0.9999
   2.100   0.4531   0.01697   0.00836  -0.0415   0.7064   0.9999
   2.000   0.4431   0.01690   0.00834  -0.0419   0.7120   0.9999
   1.900   0.4331   0.01684   0.00830  -0.0423   0.7179   0.9999
   1.800   0.4231   0.01676   0.00825  -0.0426   0.7241   0.9999
   1.700   0.4132   0.01668   0.00820  -0.0429   0.7304   0.9999
   1.600   0.4034   0.01661   0.00817  -0.0433   0.7361   0.9999
   1.500   0.3936   0.01655   0.00815  -0.0438   0.7421   0.9999
   1.400   0.3839   0.01647   0.00810  -0.0441   0.7485   0.9999
   1.300   0.3742   0.01640   0.00806  -0.0446   0.7546   0.9999
   1.200   0.3647   0.01634   0.00805  -0.0450   0.7604   0.9999
   1.100   0.3552   0.01627   0.00802  -0.0455   0.7666   0.9999
   1.000   0.3457   0.01620   0.00798  -0.0459   0.7732   0.9999
   0.900   0.3364   0.01614   0.00797  -0.0464   0.7790   0.9999
   0.800   0.3271   0.01608   0.00795  -0.0470   0.7851   0.9999
   0.700   0.3179   0.01601   0.00792  -0.0474   0.7918   0.9999
   0.600   0.3088   0.01595   0.00791  -0.0480   0.7979   0.9999
   0.500   0.2998   0.01590   0.00791  -0.0486   0.8040   0.9999
   0.400   0.2908   0.01583   0.00788  -0.0491   0.8108   0.9999
   0.300   0.2820   0.01578   0.00788  -0.0498   0.8170   0.9999
   0.200   0.2732   0.01573   0.00789  -0.0504   0.8233   0.9999
   0.100   0.2645   0.01567   0.00787  -0.0509   0.8304   0.9999
  -0.000   0.2558   0.01563   0.00789  -0.0516   0.8366   0.9999
  -0.100   0.2472   0.01558   0.00789  -0.0522   0.8433   0.9999
  -0.200   0.2387   0.01554   0.00790  -0.0529   0.8502   0.9999
  -0.300   0.2300   0.01550   0.00792  -0.0535   0.8569   0.9999
  -0.400   0.2214   0.01546   0.00794  -0.0541   0.8641   0.9999
  -0.500   0.2125   0.01544   0.00798  -0.0547   0.8708   0.9999
  -0.600   0.2037   0.01541   0.00800  -0.0552   0.8783   0.9999
  -0.700   0.1942   0.01540   0.00806  -0.0556   0.8852   0.9999
  -0.800   0.1848   0.01539   0.00811  -0.0560   0.8928   0.9999
  -0.900   0.1743   0.01540   0.00818  -0.0561   0.8999   0.9999
  -1.000   0.1636   0.01542   0.00826  -0.0562   0.9075   0.9999
  -1.100   0.1517   0.01545   0.00837  -0.0560   0.9148   0.9999
  -1.200   0.1389   0.01551   0.00849  -0.0556   0.9222   0.9999
  -1.300   0.1254   0.01557   0.00863  -0.0549   0.9297   0.9999
  -1.400   0.1097   0.01567   0.00881  -0.0538   0.9366   0.9999
  -1.500   0.0935   0.01579   0.00901  -0.0525   0.9438   0.9999
  -1.600   0.0754   0.01594   0.00925  -0.0507   0.9504   0.9999
  -1.700   0.0565   0.01612   0.00951  -0.0486   0.9570   0.9999
  -1.800   0.0218   0.01621   0.00972  -0.0436   0.9600   0.9910
  -1.900  -0.0201   0.01617   0.00980  -0.0375   0.9606   0.9734
  -2.000  -0.0587   0.01608   0.00984  -0.0322   0.9619   0.9489
  -2.100  -0.0948   0.01598   0.00983  -0.0277   0.9636   0.9183
  -2.200  -0.1248   0.01591   0.00980  -0.0246   0.9656   0.8808
  -2.300  -0.1461   0.01591   0.00978  -0.0233   0.9691   0.8422
  -2.400  -0.1635   0.01597   0.00978  -0.0227   0.9732   0.8047
  -2.500  -0.1800   0.01606   0.00979  -0.0222   0.9774   0.7686
  -2.600  -0.1967   0.01617   0.00982  -0.0215   0.9816   0.7326
  -2.700  -0.2138   0.01630   0.00985  -0.0207   0.9858   0.6971
  -2.800  -0.2312   0.01643   0.00987  -0.0197   0.9898   0.6617
  -2.900  -0.2489   0.01657   0.00991  -0.0186   0.9938   0.6255
  -3.000  -0.2671   0.01672   0.00994  -0.0173   0.9977   0.5891
  -3.100  -0.2818   0.01684   0.00994  -0.0165   1.0001   0.5556
  -3.200  -0.2896   0.01686   0.00987  -0.0169   1.0001   0.5292
  -3.300  -0.2973   0.01690   0.00980  -0.0173   1.0001   0.5032
  -3.400  -0.3050   0.01695   0.00976  -0.0177   1.0001   0.4771
  -3.500  -0.3127   0.01702   0.00972  -0.0181   1.0001   0.4514
  -3.600  -0.3201   0.01711   0.00970  -0.0185   1.0001   0.4260
  -3.700  -0.3274   0.01721   0.00970  -0.0190   1.0001   0.4006
  -3.800  -0.3345   0.01733   0.00971  -0.0194   1.0001   0.3756
  -3.900  -0.3414   0.01747   0.00974  -0.0199   1.0001   0.3510
  -4.000  -0.3483   0.01763   0.00978  -0.0204   1.0001   0.3267
  -4.100  -0.3550   0.01781   0.00983  -0.0210   1.0001   0.3024
  -4.200  -0.3616   0.01800   0.00991  -0.0215   1.0001   0.2789
  -4.300  -0.3682   0.01822   0.01001  -0.0220   1.0001   0.2558
  -4.400  -0.3748   0.01846   0.01014  -0.0226   1.0001   0.2334
  -4.500  -0.3812   0.01874   0.01029  -0.0232   1.0001   0.2129
  -4.600  -0.3879   0.01906   0.01050  -0.0238   1.0001   0.1927
  -4.700  -0.3945   0.01943   0.01075  -0.0244   1.0001   0.1744
  -4.800  -0.4014   0.01983   0.01104  -0.0250   1.0001   0.1580
  -4.900  -0.4084   0.02028   0.01137  -0.0256   1.0001   0.1433
  -5.000  -0.4159   0.02075   0.01175  -0.0262   1.0001   0.1307
  -5.100  -0.4234   0.02124   0.01214  -0.0267   1.0001   0.1206
  -5.200  -0.4313   0.02174   0.01256  -0.0273   1.0001   0.1121
  -5.300  -0.4397   0.02225   0.01307  -0.0278   1.0001   0.1045
  -5.400  -0.4482   0.02278   0.01350  -0.0282   1.0001   0.0984
  -5.500  -0.4571   0.02333   0.01409  -0.0286   1.0001   0.0928
  -5.600  -0.4663   0.02390   0.01466  -0.0290   1.0001   0.0880
  -5.700  -0.4756   0.02450   0.01526  -0.0294   1.0001   0.0838
  -5.800  -0.4850   0.02513   0.01588  -0.0297   1.0001   0.0802
  -5.900  -0.4946   0.02575   0.01642  -0.0299   1.0001   0.0770
  -6.000  -0.5044   0.02647   0.01731  -0.0303   1.0001   0.0740
  -6.100  -0.5141   0.02724   0.01814  -0.0306   1.0001   0.0715
  -6.200  -0.5239   0.02796   0.01889  -0.0308   1.0001   0.0694
  -6.300  -0.5336   0.02887   0.01994  -0.0312   1.0001   0.0675
  -6.400  -0.5433   0.02974   0.02093  -0.0314   1.0001   0.0660
  -6.500  -0.5531   0.03059   0.02178  -0.0316   1.0001   0.0645
  -6.600  -0.5621   0.03178   0.02328  -0.0320   1.0001   0.0635
  -6.700  -0.5711   0.03290   0.02460  -0.0324   1.0001   0.0626
  -6.800  -0.5801   0.03397   0.02580  -0.0327   1.0001   0.0618
  -6.900  -0.5897   0.03485   0.02663  -0.0327   1.0001   0.0608
  -7.000  -0.5975   0.03627   0.02833  -0.0331   1.0001   0.0606
  -7.100  -0.6049   0.03777   0.03010  -0.0335   1.0001   0.0605
  -7.200  -0.6120   0.03933   0.03189  -0.0338   1.0001   0.0605
  -7.300  -0.6188   0.04089   0.03365  -0.0341   1.0001   0.0606
  -7.400  -0.6251   0.04258   0.03556  -0.0344   1.0001   0.0609
  -7.600  -0.6294   0.04787   0.04164  -0.0351   1.0001   0.0640
  -7.700  -0.6341   0.04979   0.04370  -0.0352   1.0001   0.0651
  -7.800  -0.6248   0.05510   0.04960  -0.0348   1.0001   0.0712
  -7.900  -0.6298   0.05700   0.05156  -0.0349   1.0001   0.0732
  -8.300  -0.5348   0.09078   0.08618  -0.0074   1.0001   0.1604
  -8.400  -0.5364   0.09229   0.08767  -0.0070   1.0001   0.1583
  -8.500  -0.5360   0.09405   0.08941  -0.0063   1.0001   0.1567
  -8.700  -0.5381   0.09726   0.09258  -0.0055   1.0001   0.1526
  -8.800  -0.5297   0.09930   0.09458  -0.0032   1.0001   0.1502
  -8.900  -0.5382   0.10053   0.09582  -0.0042   1.0001   0.1483
  -9.000  -0.5291   0.10267   0.09791  -0.0017   1.0001   0.1464
  -9.100  -0.5332   0.10406   0.09929  -0.0018   1.0001   0.1443
  -9.200  -0.5318   0.10586   0.10106  -0.0008   1.0001   0.1428
  -9.300  -0.5300   0.10752   0.10270   0.0002   1.0001   0.1405
  -9.400  -0.5375   0.10890   0.10409  -0.0005   1.0001   0.1389
  -9.500  -0.5294   0.11086   0.10600   0.0018   1.0001   0.1369
  -9.600  -0.5350   0.11221   0.10736   0.0014   1.0001   0.1350
  -9.700  -0.5325   0.11404   0.10915   0.0027   1.0001   0.1336
  -9.800  -0.5318   0.11562   0.11072   0.0036   1.0001   0.1314
  -9.900  -0.5392   0.11706   0.11216   0.0028   1.0001   0.1298
 -10.000  -0.5323   0.11891   0.11397   0.0050   1.0001   0.1282
