  
       XFOIL         Version 6.99
  
 Calculated polar for: s1075                                           
  
 1 1 Reynolds number fixed          Mach number fixed         
  
 xtrf =   1.000 (top)        1.000 (bottom)  
 Mach =   0.000     Re =     1.000 e 6     Ncrit =   9.000
  
   alpha    CL        CD       CDp       CM     Top_Xtr  Bot_Xtr
  ------ -------- --------- --------- -------- -------- --------
  20.000   1.2421   0.16107   0.15816  -0.0617   0.0036   0.9999
  19.900   1.2444   0.15887   0.15592  -0.0603   0.0036   0.9999
  19.800   1.2472   0.15657   0.15359  -0.0589   0.0037   0.9999
  19.700   1.2498   0.15435   0.15134  -0.0576   0.0037   0.9999
  19.600   1.2527   0.15202   0.14898  -0.0563   0.0037   0.9999
  19.500   1.2557   0.14970   0.14663  -0.0550   0.0037   0.9999
  19.400   1.2590   0.14736   0.14425  -0.0536   0.0037   0.9999
  19.300   1.2625   0.14499   0.14185  -0.0523   0.0037   0.9999
  19.200   1.2662   0.14258   0.13940  -0.0510   0.0037   0.9999
  19.100   1.2700   0.14016   0.13694  -0.0497   0.0037   0.9999
  19.000   1.2740   0.13772   0.13447  -0.0484   0.0037   0.9999
  18.900   1.2783   0.13526   0.13197  -0.0471   0.0038   0.9999
  18.800   1.2827   0.13277   0.12945  -0.0459   0.0038   0.9999
  18.700   1.2874   0.13024   0.12688  -0.0446   0.0038   0.9999
  18.600   1.2922   0.12772   0.12431  -0.0433   0.0038   0.9999
  18.500   1.2979   0.12504   0.12161  -0.0420   0.0038   0.9999
  18.400   1.3035   0.12240   0.11893  -0.0408   0.0038   0.9999
  18.300   1.3095   0.11973   0.11622  -0.0395   0.0038   0.9999
  18.200   1.3158   0.11701   0.11346  -0.0383   0.0038   0.9999
  18.100   1.3219   0.11434   0.11075  -0.0371   0.0038   0.9999
  18.000   1.3286   0.11157   0.10794  -0.0358   0.0038   0.9999
  17.900   1.3351   0.10884   0.10517  -0.0346   0.0038   0.9999
  17.800   1.3417   0.10614   0.10243  -0.0335   0.0038   0.9999
  17.700   1.3486   0.10341   0.09965  -0.0323   0.0038   0.9999
  17.600   1.3558   0.10065   0.09685  -0.0312   0.0038   0.9999
  17.500   1.3626   0.09794   0.09410  -0.0300   0.0038   0.9999
  17.400   1.3693   0.09529   0.09141  -0.0290   0.0038   0.9999
  17.300   1.3763   0.09260   0.08867  -0.0279   0.0038   0.9999
  17.200   1.3834   0.08993   0.08596  -0.0268   0.0038   0.9999
  17.100   1.3901   0.08734   0.08332  -0.0258   0.0038   0.9999
  17.000   1.3969   0.08474   0.08068  -0.0248   0.0039   0.9999
  16.900   1.4036   0.08217   0.07806  -0.0238   0.0039   0.9999
  16.800   1.4102   0.07966   0.07550  -0.0229   0.0039   0.9999
  16.700   1.4168   0.07718   0.07297  -0.0220   0.0039   0.9999
  16.600   1.4229   0.07478   0.07052  -0.0211   0.0039   0.9999
  16.500   1.4286   0.07246   0.06816  -0.0203   0.0039   0.9999
  16.400   1.4345   0.07015   0.06580  -0.0195   0.0039   0.9999
  16.300   1.4402   0.06789   0.06349  -0.0187   0.0039   0.9999
  16.200   1.4457   0.06570   0.06126  -0.0180   0.0039   0.9999
  16.100   1.4507   0.06362   0.05914  -0.0173   0.0040   0.9999
  16.000   1.4559   0.06152   0.05698  -0.0167   0.0040   0.9999
  15.900   1.4606   0.05953   0.05495  -0.0161   0.0040   0.9999
  15.800   1.4647   0.05761   0.05298  -0.0155   0.0040   0.9999
  15.700   1.4685   0.05578   0.05110  -0.0150   0.0040   0.9999
  15.600   1.4718   0.05401   0.04929  -0.0146   0.0040   0.9999
  15.500   1.4753   0.05223   0.04746  -0.0141   0.0041   0.9999
  15.400   1.4781   0.05057   0.04575  -0.0137   0.0041   0.9999
  15.300   1.4809   0.04891   0.04405  -0.0133   0.0041   0.9999
  15.200   1.4832   0.04735   0.04244  -0.0130   0.0042   0.9999
  15.100   1.4849   0.04586   0.04090  -0.0127   0.0042   0.9999
  15.000   1.4862   0.04446   0.03945  -0.0124   0.0042   0.9999
  14.900   1.4869   0.04314   0.03808  -0.0122   0.0043   0.9999
  14.800   1.4879   0.04180   0.03670  -0.0121   0.0043   0.9999
  14.700   1.4902   0.04034   0.03519  -0.0119   0.0044   0.9999
  14.600   1.4913   0.03903   0.03384  -0.0118   0.0044   0.9999
  14.500   1.4926   0.03774   0.03252  -0.0117   0.0044   0.9999
  14.400   1.4921   0.03666   0.03140  -0.0117   0.0045   0.9999
  14.300   1.4918   0.03559   0.03029  -0.0118   0.0045   0.9999
  14.200   1.4917   0.03450   0.02916  -0.0119   0.0046   0.9999
  14.100   1.4904   0.03358   0.02821  -0.0120   0.0047   0.9999
  14.000   1.4895   0.03264   0.02722  -0.0122   0.0047   0.9999
  13.900   1.4879   0.03179   0.02633  -0.0124   0.0048   0.9999
  13.800   1.4861   0.03099   0.02548  -0.0127   0.0049   0.9999
  13.700   1.4854   0.03010   0.02456  -0.0130   0.0049   0.9999
  13.600   1.4844   0.02929   0.02372  -0.0135   0.0050   0.9999
  13.500   1.4830   0.02853   0.02292  -0.0139   0.0051   0.9999
  13.400   1.4811   0.02785   0.02221  -0.0144   0.0052   0.9999
  13.300   1.4789   0.02722   0.02154  -0.0150   0.0053   0.9999
  13.200   1.4765   0.02663   0.02092  -0.0156   0.0054   0.9999
  13.100   1.4740   0.02608   0.02033  -0.0164   0.0055   0.9999
  13.000   1.4724   0.02551   0.01972  -0.0172   0.0056   0.9999
  12.900   1.4709   0.02496   0.01914  -0.0182   0.0057   0.9999
  12.800   1.4690   0.02447   0.01863  -0.0192   0.0058   0.9999
  12.700   1.4667   0.02405   0.01818  -0.0203   0.0059   0.9999
  12.600   1.4644   0.02365   0.01774  -0.0214   0.0061   0.9999
  12.500   1.4610   0.02327   0.01733  -0.0224   0.0063   0.9999
  12.400   1.4569   0.02286   0.01690  -0.0232   0.0064   0.9999
  12.300   1.4520   0.02249   0.01650  -0.0239   0.0066   0.9999
  12.200   1.4464   0.02215   0.01614  -0.0245   0.0069   0.9999
  12.100   1.4413   0.02176   0.01573  -0.0252   0.0072   0.9999
  12.000   1.4353   0.02143   0.01537  -0.0258   0.0074   0.9999
  11.900   1.4291   0.02109   0.01501  -0.0264   0.0079   0.9999
  11.800   1.4230   0.02074   0.01464  -0.0269   0.0083   0.9999
  11.700   1.4163   0.02040   0.01428  -0.0275   0.0088   0.9999
  11.600   1.4096   0.02006   0.01392  -0.0280   0.0093   0.9999
  11.500   1.4026   0.01973   0.01357  -0.0284   0.0099   0.9999
  11.400   1.3953   0.01941   0.01324  -0.0288   0.0107   0.9999
  11.300   1.3880   0.01908   0.01290  -0.0292   0.0116   0.9999
  11.200   1.3805   0.01876   0.01258  -0.0296   0.0125   0.9999
  11.100   1.3728   0.01846   0.01226  -0.0300   0.0135   0.9999
  11.000   1.3647   0.01818   0.01197  -0.0303   0.0146   0.9999
  10.900   1.3565   0.01790   0.01168  -0.0306   0.0158   0.9999
  10.800   1.3484   0.01761   0.01139  -0.0309   0.0171   0.9999
  10.700   1.3401   0.01732   0.01110  -0.0312   0.0186   0.9999
  10.600   1.3317   0.01704   0.01082  -0.0315   0.0203   0.9999
  10.500   1.3232   0.01676   0.01054  -0.0317   0.0224   0.9999
  10.400   1.3146   0.01649   0.01027  -0.0320   0.0247   0.9999
  10.300   1.3059   0.01622   0.01001  -0.0322   0.0275   0.9999
  10.200   1.2972   0.01594   0.00975  -0.0324   0.0306   0.9999
  10.100   1.2883   0.01567   0.00949  -0.0326   0.0338   0.9999
  10.000   1.2793   0.01541   0.00925  -0.0328   0.0373   0.9999
   9.900   1.2702   0.01516   0.00901  -0.0330   0.0410   0.9999
   9.800   1.2610   0.01490   0.00878  -0.0331   0.0450   0.9999
   9.700   1.2517   0.01465   0.00855  -0.0333   0.0490   0.9999
   9.600   1.2424   0.01441   0.00832  -0.0334   0.0536   0.9999
   9.500   1.2329   0.01417   0.00810  -0.0335   0.0586   0.9999
   9.400   1.2233   0.01394   0.00790  -0.0337   0.0629   0.9999
   9.300   1.2139   0.01369   0.00768  -0.0338   0.0687   0.9999
   9.200   1.2042   0.01347   0.00748  -0.0339   0.0738   0.9999
   9.100   1.1944   0.01325   0.00729  -0.0339   0.0789   0.9999
   9.000   1.1846   0.01303   0.00710  -0.0340   0.0852   0.9999
   8.900   1.1748   0.01280   0.00690  -0.0341   0.0917   0.9999
   8.800   1.1650   0.01256   0.00671  -0.0342   0.0992   0.9999
   8.700   1.1551   0.01235   0.00653  -0.0342   0.1061   0.9999
   8.600   1.1451   0.01213   0.00635  -0.0343   0.1140   0.9999
   8.500   1.1350   0.01193   0.00618  -0.0343   0.1212   0.9999
   8.400   1.1248   0.01173   0.00602  -0.0343   0.1285   0.9999
   8.300   1.1145   0.01154   0.00587  -0.0343   0.1358   0.9999
   8.200   1.1041   0.01136   0.00572  -0.0343   0.1431   0.9999
   8.100   1.0937   0.01119   0.00558  -0.0343   0.1500   0.9999
   8.000   1.0831   0.01103   0.00545  -0.0343   0.1563   0.9999
   7.900   1.0726   0.01088   0.00532  -0.0343   0.1620   0.9999
   7.800   1.0618   0.01074   0.00520  -0.0342   0.1680   0.9999
   7.700   1.0511   0.01060   0.00508  -0.0342   0.1743   0.9999
   7.600   1.0404   0.01046   0.00496  -0.0342   0.1802   0.9999
   7.500   1.0296   0.01032   0.00485  -0.0341   0.1866   0.9999
   7.400   1.0189   0.01017   0.00473  -0.0341   0.1942   0.9999
   7.300   1.0081   0.01003   0.00462  -0.0340   0.2014   0.9999
   7.200   0.9972   0.00990   0.00452  -0.0340   0.2088   0.9999
   7.100   0.9863   0.00977   0.00441  -0.0339   0.2154   0.9999
   7.000   0.9753   0.00966   0.00432  -0.0339   0.2211   0.9999
   6.900   0.9643   0.00955   0.00423  -0.0338   0.2264   0.9999
   6.800   0.9532   0.00945   0.00414  -0.0337   0.2315   0.9999
   6.700   0.9421   0.00935   0.00405  -0.0336   0.2364   0.9999
   6.600   0.9310   0.00925   0.00397  -0.0336   0.2418   0.9999
   6.500   0.9199   0.00915   0.00388  -0.0335   0.2469   0.9999
   6.400   0.9087   0.00905   0.00380  -0.0334   0.2521   0.9999
   6.300   0.8975   0.00896   0.00372  -0.0333   0.2574   0.9999
   6.200   0.8863   0.00887   0.00364  -0.0333   0.2627   0.9999
   6.100   0.8751   0.00878   0.00357  -0.0332   0.2683   0.9999
   6.000   0.8639   0.00869   0.00350  -0.0331   0.2739   0.9999
   5.900   0.8527   0.00860   0.00342  -0.0330   0.2791   0.9999
   5.800   0.8414   0.00851   0.00335  -0.0329   0.2846   0.9999
   5.700   0.8302   0.00843   0.00329  -0.0328   0.2897   0.9999
   5.600   0.8189   0.00834   0.00322  -0.0327   0.2949   0.9999
   5.500   0.8076   0.00826   0.00316  -0.0326   0.3001   0.9999
   5.400   0.7962   0.00819   0.00309  -0.0325   0.3052   0.9999
   5.300   0.7849   0.00811   0.00303  -0.0325   0.3102   0.9999
   5.100   0.7622   0.00797   0.00292  -0.0323   0.3201   0.9999
   5.000   0.7509   0.00789   0.00286  -0.0322   0.3253   0.9999
   4.900   0.7395   0.00782   0.00280  -0.0321   0.3304   0.9999
   4.800   0.7282   0.00775   0.00275  -0.0320   0.3355   0.9999
   4.700   0.7168   0.00768   0.00270  -0.0319   0.3404   0.9999
   4.600   0.7054   0.00762   0.00265  -0.0318   0.3454   0.9999
   4.500   0.6940   0.00755   0.00260  -0.0317   0.3508   0.9999
   4.400   0.6826   0.00749   0.00255  -0.0316   0.3557   0.9999
   4.300   0.6712   0.00742   0.00251  -0.0315   0.3610   0.9999
   4.200   0.6598   0.00736   0.00246  -0.0314   0.3660   0.9999
   4.100   0.6484   0.00730   0.00242  -0.0313   0.3711   0.9999
   3.900   0.6256   0.00718   0.00234  -0.0312   0.3808   0.9999
   3.800   0.6142   0.00713   0.00230  -0.0311   0.3856   0.9999
   3.700   0.6028   0.00707   0.00226  -0.0310   0.3909   0.9999
   3.600   0.5914   0.00701   0.00223  -0.0309   0.3956   0.9999
   3.500   0.5800   0.00696   0.00219  -0.0308   0.4009   0.9999
   3.400   0.5686   0.00690   0.00216  -0.0308   0.4060   0.9999
   3.300   0.5573   0.00685   0.00212  -0.0307   0.4109   0.9999
   3.200   0.5459   0.00680   0.00209  -0.0306   0.4159   0.9999
   3.100   0.5345   0.00675   0.00206  -0.0305   0.4209   0.9999
   3.000   0.5232   0.00670   0.00204  -0.0305   0.4260   0.9999
   2.900   0.5118   0.00665   0.00201  -0.0304   0.4310   0.9999
   2.800   0.5005   0.00661   0.00198  -0.0304   0.4358   0.9999
   2.700   0.4892   0.00656   0.00196  -0.0303   0.4408   0.9999
   2.600   0.4779   0.00652   0.00194  -0.0303   0.4459   0.9999
   2.500   0.4667   0.00647   0.00192  -0.0302   0.4509   0.9999
   2.400   0.4555   0.00643   0.00190  -0.0302   0.4559   0.9999
   2.300   0.4443   0.00639   0.00188  -0.0302   0.4609   0.9999
   2.200   0.4331   0.00635   0.00186  -0.0302   0.4658   0.9999
   2.100   0.4220   0.00631   0.00185  -0.0302   0.4708   0.9999
   2.000   0.4109   0.00627   0.00183  -0.0302   0.4757   0.9999
   1.900   0.3998   0.00623   0.00182  -0.0302   0.4808   0.9999
   1.800   0.3888   0.00620   0.00181  -0.0302   0.4859   0.9999
   1.700   0.3778   0.00617   0.00181  -0.0302   0.4909   0.9999
   1.600   0.3668   0.00614   0.00180  -0.0302   0.4959   0.9999
   1.500   0.3559   0.00611   0.00180  -0.0303   0.5009   0.9999
   1.400   0.3450   0.00608   0.00180  -0.0303   0.5057   0.9999
   1.100   0.2992   0.00595   0.00175  -0.0275   0.5223   0.9932
   1.000   0.2835   0.00591   0.00174  -0.0265   0.5279   0.9865
   0.900   0.2683   0.00588   0.00174  -0.0256   0.5333   0.9748
   0.800   0.2521   0.00588   0.00175  -0.0245   0.5389   0.9508
   0.700   0.2406   0.00593   0.00176  -0.0246   0.5440   0.9173
   0.600   0.2313   0.00601   0.00176  -0.0252   0.5487   0.8850
   0.500   0.2215   0.00608   0.00175  -0.0256   0.5536   0.8563
   0.400   0.2110   0.00615   0.00175  -0.0258   0.5585   0.8291
   0.300   0.2003   0.00621   0.00174  -0.0260   0.5636   0.8040
   0.200   0.1893   0.00627   0.00173  -0.0261   0.5684   0.7793
   0.100   0.1782   0.00632   0.00173  -0.0261   0.5735   0.7578
  -0.000   0.1669   0.00637   0.00173  -0.0261   0.5785   0.7364
  -0.100   0.1555   0.00641   0.00172  -0.0260   0.5833   0.7157
  -0.200   0.1441   0.00646   0.00172  -0.0260   0.5884   0.6958
  -0.300   0.1326   0.00651   0.00172  -0.0259   0.5934   0.6753
  -0.400   0.1212   0.00655   0.00173  -0.0259   0.5986   0.6565
  -0.500   0.1096   0.00659   0.00173  -0.0258   0.6035   0.6382
  -0.600   0.0981   0.00662   0.00174  -0.0257   0.6085   0.6230
  -0.700   0.0864   0.00666   0.00174  -0.0256   0.6134   0.6064
  -0.800   0.0749   0.00670   0.00175  -0.0255   0.6185   0.5898
  -0.900   0.0633   0.00674   0.00176  -0.0254   0.6234   0.5740
  -1.000   0.0517   0.00678   0.00177  -0.0253   0.6284   0.5581
  -1.100   0.0400   0.00682   0.00178  -0.0252   0.6334   0.5422
  -1.200   0.0284   0.00686   0.00180  -0.0251   0.6385   0.5259
  -1.300   0.0168   0.00692   0.00181  -0.0250   0.6435   0.5078
  -1.400   0.0052   0.00697   0.00183  -0.0248   0.6486   0.4899
  -1.500  -0.0064   0.00702   0.00185  -0.0247   0.6535   0.4714
  -1.600  -0.0180   0.00707   0.00187  -0.0246   0.6586   0.4561
  -1.700  -0.0297   0.00712   0.00189  -0.0245   0.6634   0.4397
  -1.800  -0.0413   0.00717   0.00191  -0.0244   0.6685   0.4256
  -1.900  -0.0529   0.00722   0.00194  -0.0243   0.6735   0.4105
  -2.000  -0.0646   0.00727   0.00196  -0.0241   0.6784   0.3962
  -2.100  -0.0762   0.00732   0.00199  -0.0240   0.6833   0.3815
  -2.200  -0.0878   0.00738   0.00202  -0.0239   0.6883   0.3666
  -2.300  -0.0994   0.00745   0.00205  -0.0238   0.6931   0.3502
  -2.400  -0.1110   0.00751   0.00209  -0.0237   0.6981   0.3347
  -2.500  -0.1226   0.00758   0.00212  -0.0236   0.7029   0.3177
  -2.600  -0.1342   0.00767   0.00216  -0.0234   0.7078   0.2982
  -2.700  -0.1457   0.00776   0.00221  -0.0233   0.7127   0.2793
  -2.800  -0.1572   0.00785   0.00225  -0.0232   0.7175   0.2611
  -2.900  -0.1687   0.00793   0.00229  -0.0231   0.7224   0.2462
  -3.000  -0.1803   0.00801   0.00234  -0.0230   0.7272   0.2308
  -3.100  -0.1918   0.00809   0.00239  -0.0229   0.7322   0.2171
  -3.200  -0.2034   0.00816   0.00244  -0.0228   0.7369   0.2042
  -3.300  -0.2149   0.00824   0.00250  -0.0227   0.7418   0.1911
  -3.400  -0.2264   0.00833   0.00256  -0.0225   0.7468   0.1777
  -3.500  -0.2379   0.00842   0.00262  -0.0225   0.7515   0.1641
  -3.600  -0.2494   0.00852   0.00268  -0.0223   0.7565   0.1506
  -3.700  -0.2608   0.00862   0.00275  -0.0222   0.7615   0.1365
  -3.800  -0.2722   0.00873   0.00282  -0.0222   0.7664   0.1235
  -3.900  -0.2836   0.00883   0.00289  -0.0221   0.7716   0.1107
  -4.000  -0.2951   0.00893   0.00296  -0.0220   0.7768   0.1004
  -4.100  -0.3065   0.00903   0.00304  -0.0219   0.7819   0.0902
  -4.200  -0.3179   0.00913   0.00312  -0.0218   0.7873   0.0812
  -4.300  -0.3293   0.00923   0.00320  -0.0218   0.7925   0.0724
  -4.400  -0.3406   0.00933   0.00329  -0.0217   0.7978   0.0635
  -4.500  -0.3519   0.00944   0.00339  -0.0216   0.8033   0.0557
  -4.600  -0.3632   0.00955   0.00348  -0.0216   0.8088   0.0477
  -4.700  -0.3744   0.00967   0.00359  -0.0215   0.8143   0.0399
  -4.800  -0.3857   0.00979   0.00370  -0.0215   0.8202   0.0341
  -4.900  -0.3969   0.00991   0.00382  -0.0215   0.8260   0.0300
  -5.000  -0.4081   0.01002   0.00393  -0.0215   0.8320   0.0269
  -5.100  -0.4193   0.01013   0.00406  -0.0215   0.8381   0.0244
  -5.200  -0.4305   0.01024   0.00419  -0.0215   0.8445   0.0223
  -5.300  -0.4416   0.01035   0.00432  -0.0215   0.8507   0.0203
  -5.400  -0.4526   0.01047   0.00446  -0.0215   0.8574   0.0186
  -5.500  -0.4636   0.01059   0.00460  -0.0216   0.8641   0.0173
  -5.600  -0.4745   0.01072   0.00475  -0.0216   0.8710   0.0161
  -5.700  -0.4853   0.01083   0.00490  -0.0217   0.8784   0.0151
  -5.800  -0.4960   0.01094   0.00505  -0.0219   0.8858   0.0143
  -5.900  -0.5065   0.01106   0.00519  -0.0220   0.8937   0.0136
  -6.000  -0.5171   0.01116   0.00533  -0.0222   0.9020   0.0130
  -6.100  -0.5273   0.01127   0.00547  -0.0224   0.9107   0.0125
  -6.200  -0.5372   0.01139   0.00563  -0.0227   0.9201   0.0121
  -6.300  -0.5468   0.01149   0.00578  -0.0232   0.9302   0.0117
  -6.400  -0.5561   0.01158   0.00591  -0.0236   0.9410   0.0114
  -6.500  -0.5652   0.01173   0.00607  -0.0241   0.9532   0.0110
  -6.600  -0.5753   0.01183   0.00621  -0.0244   0.9650   0.0107
  -6.700  -0.5866   0.01197   0.00638  -0.0244   0.9760   0.0104
  -6.800  -0.5992   0.01211   0.00653  -0.0241   0.9852   0.0102
  -6.900  -0.6124   0.01234   0.00675  -0.0235   0.9931   0.0099
  -7.000  -0.6261   0.01251   0.00695  -0.0229   1.0001   0.0097
  -7.100  -0.6371   0.01270   0.00716  -0.0229   1.0001   0.0095
  -7.200  -0.6482   0.01288   0.00735  -0.0229   1.0001   0.0092
  -7.300  -0.6592   0.01306   0.00754  -0.0228   1.0001   0.0091
  -7.400  -0.6700   0.01328   0.00776  -0.0228   1.0001   0.0089
  -7.500  -0.6806   0.01355   0.00804  -0.0228   1.0001   0.0088
  -7.600  -0.6916   0.01375   0.00827  -0.0228   1.0001   0.0086
  -7.700  -0.7025   0.01395   0.00849  -0.0228   1.0001   0.0084
  -7.800  -0.7133   0.01417   0.00874  -0.0228   1.0001   0.0083
  -7.900  -0.7240   0.01439   0.00897  -0.0228   1.0001   0.0082
  -8.000  -0.7347   0.01462   0.00921  -0.0228   1.0001   0.0080
  -8.100  -0.7450   0.01489   0.00948  -0.0228   1.0001   0.0079
  -8.200  -0.7551   0.01524   0.00983  -0.0228   1.0001   0.0079
  -8.300  -0.7656   0.01552   0.01016  -0.0229   1.0001   0.0077
  -8.400  -0.7761   0.01578   0.01046  -0.0230   1.0001   0.0077
  -8.500  -0.7865   0.01605   0.01077  -0.0230   1.0001   0.0076
  -8.600  -0.7967   0.01634   0.01109  -0.0231   1.0001   0.0074
  -8.700  -0.8070   0.01663   0.01140  -0.0231   1.0001   0.0073
  -8.800  -0.8172   0.01691   0.01171  -0.0232   1.0001   0.0073
  -8.900  -0.8273   0.01719   0.01200  -0.0233   1.0001   0.0072
  -9.000  -0.8374   0.01749   0.01231  -0.0233   1.0001   0.0071
  -9.100  -0.8471   0.01784   0.01268  -0.0234   1.0001   0.0070
  -9.200  -0.8563   0.01825   0.01309  -0.0235   1.0001   0.0070
  -9.300  -0.8660   0.01863   0.01352  -0.0237   1.0001   0.0069
  -9.400  -0.8755   0.01902   0.01398  -0.0238   1.0001   0.0068
  -9.500  -0.8852   0.01938   0.01441  -0.0240   1.0001   0.0067
  -9.600  -0.8947   0.01975   0.01483  -0.0241   1.0001   0.0066
  -9.700  -0.9037   0.02021   0.01535  -0.0243   1.0001   0.0066
  -9.800  -0.9129   0.02061   0.01580  -0.0245   1.0001   0.0065
  -9.900  -0.9220   0.02101   0.01624  -0.0246   1.0001   0.0065
 -10.000  -0.9310   0.02144   0.01671  -0.0248   1.0001   0.0064
