  
       XFOIL         Version 6.99
  
 Calculated polar for: s1075                                           
  
 1 1 Reynolds number fixed          Mach number fixed         
  
 xtrf =   1.000 (top)        1.000 (bottom)  
 Mach =   0.000     Re =     0.020 e 6     Ncrit =   9.000
  
   alpha    CL        CD       CDp       CM     Top_Xtr  Bot_Xtr
  ------ -------- --------- --------- -------- -------- --------
  20.000   0.9787   0.26847   0.25717  -0.1143   0.3126   0.9999
  19.900   0.9775   0.26843   0.25714  -0.1134   0.3153   0.9999
  19.800   0.9719   0.26609   0.25478  -0.1129   0.3187   0.9999
  19.700   0.9682   0.26468   0.25336  -0.1122   0.3217   0.9999
  19.600   0.9668   0.26455   0.25323  -0.1113   0.3246   0.9999
  19.500   0.9613   0.26227   0.25093  -0.1108   0.3281   0.9999
  19.400   0.9574   0.26075   0.24940  -0.1101   0.3312   0.9999
  19.300   0.9555   0.26027   0.24892  -0.1093   0.3343   0.9999
  19.200   0.9513   0.25869   0.24733  -0.1087   0.3379   0.9999
  19.100   0.9466   0.25683   0.24545  -0.1081   0.3413   0.9999
  19.000   0.9435   0.25572   0.24435  -0.1074   0.3445   0.9999
  18.900   0.9419   0.25536   0.24398  -0.1067   0.3478   0.9999
  18.800   0.9367   0.25330   0.24189  -0.1061   0.3517   0.9999
  18.700   0.9323   0.25157   0.24015  -0.1055   0.3553   0.9999
  18.600   0.9289   0.25034   0.23892  -0.1048   0.3588   0.9999
  18.500   0.9268   0.24965   0.23823  -0.1042   0.3623   0.9999
  18.400   0.9232   0.24838   0.23694  -0.1036   0.3662   0.9999
  18.300   0.9185   0.24653   0.23507  -0.1030   0.3702   0.9999
  18.200   0.9143   0.24492   0.23345  -0.1024   0.3741   0.9999
  18.100   0.9106   0.24354   0.23206  -0.1018   0.3780   0.9999
  18.000   0.9076   0.24242   0.23093  -0.1012   0.3818   0.9999
  17.900   0.9050   0.24150   0.23001  -0.1006   0.3857   0.9999
  17.800   0.9022   0.24052   0.22901  -0.1000   0.3899   0.9999
  17.700   0.8978   0.23882   0.22730  -0.0994   0.3942   0.9999
  17.600   0.8935   0.23720   0.22566  -0.0989   0.3986   0.9999
  17.500   0.8895   0.23566   0.22410  -0.0983   0.4030   0.9999
  17.400   0.8855   0.23415   0.22257  -0.0978   0.4074   0.9999
  17.300   0.8817   0.23269   0.22110  -0.0972   0.4119   0.9999
  17.200   0.8779   0.23127   0.21966  -0.0967   0.4164   0.9999
  17.100   0.8742   0.22986   0.21823  -0.0961   0.4210   0.9999
  17.000   0.8705   0.22845   0.21681  -0.0956   0.4257   0.9999
  16.900   0.8669   0.22707   0.21541  -0.0951   0.4304   0.9999
  16.800   0.8633   0.22570   0.21402  -0.0946   0.4353   0.9999
  16.700   0.8596   0.22433   0.21263  -0.0941   0.4401   0.9999
  16.600   0.8562   0.22301   0.21129  -0.0936   0.4451   0.9999
  16.500   0.8528   0.22173   0.20999  -0.0931   0.4501   0.9999
  16.400   0.8496   0.22050   0.20875  -0.0926   0.4551   0.9999
  16.300   0.8466   0.21933   0.20756  -0.0922   0.4601   0.9999
  16.200   0.8429   0.21792   0.20613  -0.0917   0.4653   0.9999
  16.100   0.8379   0.21601   0.20419  -0.0912   0.4707   0.9999
  16.000   0.8332   0.21429   0.20243  -0.0907   0.4764   0.9999
  15.900   0.8294   0.21284   0.20096  -0.0903   0.4820   0.9999
  15.800   0.8262   0.21160   0.19970  -0.0898   0.4875   0.9999
  15.700   0.8236   0.21057   0.19865  -0.0894   0.4929   0.9999
  15.600   0.8197   0.20906   0.19712  -0.0890   0.4985   0.9999
  15.500   0.8143   0.20708   0.19510  -0.0885   0.5045   0.9999
  15.400   0.8104   0.20564   0.19362  -0.0881   0.5105   0.9999
  15.300   0.8078   0.20459   0.19255  -0.0877   0.5163   0.9999
  15.200   0.8045   0.20327   0.19121  -0.0873   0.5220   0.9999
  15.100   0.7986   0.20121   0.18910  -0.0868   0.5284   0.9999
  15.000   0.7953   0.19993   0.18779  -0.0864   0.5346   0.9999
  14.900   0.7935   0.19910   0.18694  -0.0862   0.5404   0.9999
  14.800   0.7870   0.19685   0.18464  -0.0856   0.5470   0.9999
  14.700   0.7834   0.19548   0.18324  -0.0852   0.5534   0.9999
  14.600   0.7818   0.19471   0.18245  -0.0850   0.5594   0.9999
  14.500   0.7748   0.19235   0.18003  -0.0844   0.5663   0.9999
  14.400   0.7720   0.19124   0.17889  -0.0841   0.5728   0.9999
  14.300   0.7677   0.18967   0.17728  -0.0837   0.5792   0.9999
  14.200   0.7629   0.18799   0.17556  -0.0832   0.5863   0.9999
  14.100   0.7611   0.18713   0.17467  -0.0831   0.5926   0.9999
  14.000   0.7543   0.18492   0.17240  -0.0824   0.5999   0.9999
  13.900   0.7527   0.18412   0.17158  -0.0823   0.6065   0.9999
  13.800   0.7459   0.18191   0.16930  -0.0817   0.6138   0.9999
  13.700   0.7441   0.18105   0.16841  -0.0816   0.6206   0.9999
  13.600   0.7374   0.17889   0.16620  -0.0809   0.6281   0.9999
  13.500   0.7358   0.17810   0.16538  -0.0809   0.6349   0.9999
  13.400   0.7288   0.17589   0.16311  -0.0802   0.6427   0.9999
  13.300   0.7262   0.17482   0.16201  -0.0800   0.6498   0.9999
  13.200   0.7204   0.17299   0.16011  -0.0795   0.6575   0.9999
  13.100   0.7158   0.17141   0.15849  -0.0790   0.6650   0.9999
  13.000   0.7129   0.17031   0.15734  -0.0789   0.6726   0.9999
  12.900   0.7063   0.16828   0.15525  -0.0782   0.6806   0.9999
  12.800   0.7027   0.16696   0.15389  -0.0780   0.6882   0.9999
  12.700   0.6987   0.16559   0.15247  -0.0777   0.6962   0.9999
  12.600   0.6923   0.16366   0.15048  -0.0770   0.7044   0.9999
  12.500   0.6880   0.16221   0.14898  -0.0767   0.7124   0.9999
  12.400   0.6853   0.16116   0.14789  -0.0766   0.7204   0.9999
  12.300   0.6785   0.15918   0.14584  -0.0758   0.7291   0.9999
  12.200   0.6725   0.15740   0.14399  -0.0752   0.7375   0.9999
  12.100   0.6678   0.15590   0.14244  -0.0748   0.7460   0.9999
  12.000   0.6639   0.15460   0.14109  -0.0746   0.7545   0.9999
  11.900   0.6596   0.15323   0.13966  -0.0742   0.7634   0.9999
  11.800   0.6532   0.15141   0.13778  -0.0736   0.7725   0.9999
  11.700   0.6468   0.14962   0.13592  -0.0729   0.7816   0.9999
  11.500   0.6349   0.14625   0.13243  -0.0716   0.8003   0.9999
  11.400   0.6290   0.14461   0.13072  -0.0710   0.8099   0.9999
  11.300   0.6230   0.14298   0.12902  -0.0703   0.8196   0.9999
  11.200   0.6172   0.14139   0.12737  -0.0697   0.8296   0.9999
  11.100   0.6117   0.13989   0.12580  -0.0691   0.8396   0.9999
  11.000   0.6047   0.13810   0.12395  -0.0682   0.8498   0.9999
  10.900   0.5963   0.13608   0.12184  -0.0671   0.8604   0.9999
  10.800   0.5886   0.13424   0.11993  -0.0660   0.8713   0.9999
  10.700   0.5832   0.13284   0.11846  -0.0654   0.8825   0.9999
  10.600   0.5736   0.13069   0.11623  -0.0639   0.8937   0.9999
  10.500   0.5657   0.12890   0.11435  -0.0627   0.9056   0.9999
  10.400   0.5564   0.12689   0.11226  -0.0612   0.9174   0.9999
  10.300   0.5487   0.12523   0.11052  -0.0600   0.9301   0.9999
  10.200   0.5363   0.12275   0.10793  -0.0577   0.9427   0.9999
  10.100   0.5251   0.12056   0.10565  -0.0556   0.9558   0.9999
  10.000   0.5122   0.11817   0.10315  -0.0530   0.9696   0.9999
   9.900   0.4970   0.11548   0.10034  -0.0498   0.9835   0.9999
   9.800   0.4772   0.11210   0.09682  -0.0455   0.9964   0.9999
   9.700   0.4672   0.10999   0.09463  -0.0434   1.0001   0.9999
   9.600   0.4634   0.10870   0.09329  -0.0429   1.0001   0.9999
   9.500   0.4595   0.10741   0.09195  -0.0423   1.0001   0.9999
   9.400   0.4557   0.10613   0.09062  -0.0418   1.0001   0.9999
   9.300   0.4518   0.10487   0.08930  -0.0413   1.0001   0.9999
   9.200   0.4479   0.10361   0.08799  -0.0408   1.0001   0.9999
   9.100   0.4440   0.10235   0.08669  -0.0402   1.0001   0.9999
   9.000   0.4401   0.10111   0.08540  -0.0397   1.0001   0.9999
   8.900   0.4362   0.09988   0.08411  -0.0392   1.0001   0.9999
   8.800   0.4322   0.09865   0.08284  -0.0387   1.0001   0.9999
   8.700   0.4282   0.09743   0.08158  -0.0382   1.0001   0.9999
   8.600   0.4242   0.09623   0.08032  -0.0377   1.0001   0.9999
   8.500   0.4202   0.09503   0.07908  -0.0372   1.0001   0.9999
   8.400   0.4162   0.09384   0.07784  -0.0367   1.0001   0.9999
   8.300   0.4122   0.09266   0.07662  -0.0362   1.0001   0.9999
   8.200   0.4081   0.09149   0.07540  -0.0357   1.0001   0.9999
   8.100   0.4040   0.09033   0.07420  -0.0352   1.0001   0.9999
   8.000   0.3999   0.08918   0.07301  -0.0347   1.0001   0.9999
   7.900   0.3958   0.08805   0.07182  -0.0342   1.0001   0.9999
   7.800   0.3916   0.08692   0.07065  -0.0338   1.0001   0.9999
   7.700   0.3874   0.08580   0.06949  -0.0333   1.0001   0.9999
   7.600   0.3832   0.08469   0.06834  -0.0328   1.0001   0.9999
   7.500   0.3790   0.08360   0.06720  -0.0324   1.0001   0.9999
   7.400   0.3747   0.08251   0.06608  -0.0319   1.0001   0.9999
   7.300   0.3704   0.08143   0.06496  -0.0314   1.0001   0.9999
   7.200   0.3661   0.08036   0.06385  -0.0310   1.0001   0.9999
   7.100   0.3618   0.07931   0.06276  -0.0305   1.0001   0.9999
   7.000   0.3574   0.07826   0.06167  -0.0301   1.0001   0.9999
   6.900   0.3531   0.07723   0.06060  -0.0297   1.0001   0.9999
   6.800   0.3487   0.07621   0.05954  -0.0292   1.0001   0.9999
   6.700   0.3442   0.07519   0.05849  -0.0288   1.0001   0.9999
   6.600   0.3397   0.07419   0.05745  -0.0283   1.0001   0.9999
   6.500   0.3353   0.07320   0.05643  -0.0279   1.0001   0.9999
   6.400   0.3307   0.07222   0.05541  -0.0275   1.0001   0.9999
   6.300   0.3262   0.07125   0.05441  -0.0271   1.0001   0.9999
   6.200   0.3216   0.07029   0.05342  -0.0266   1.0001   0.9999
   6.100   0.3170   0.06934   0.05244  -0.0262   1.0001   0.9999
   6.000   0.3123   0.06840   0.05147  -0.0258   1.0001   0.9999
   5.900   0.3076   0.06748   0.05052  -0.0254   1.0001   0.9999
   5.800   0.3029   0.06656   0.04957  -0.0250   1.0001   0.9999
   5.700   0.2982   0.06565   0.04864  -0.0246   1.0001   0.9999
   5.600   0.2934   0.06476   0.04772  -0.0242   1.0001   0.9999
   5.500   0.2886   0.06388   0.04682  -0.0238   1.0001   0.9999
   5.400   0.2838   0.06301   0.04592  -0.0234   1.0001   0.9999
   5.300   0.2789   0.06215   0.04504  -0.0230   1.0001   0.9999
   5.200   0.2740   0.06130   0.04416  -0.0226   1.0001   0.9999
   5.100   0.2691   0.06046   0.04331  -0.0223   1.0001   0.9999
   5.000   0.2642   0.05963   0.04246  -0.0219   1.0001   0.9999
   4.900   0.2592   0.05881   0.04162  -0.0215   1.0001   0.9999
   4.800   0.2541   0.05801   0.04080  -0.0212   1.0001   0.9999
   4.700   0.2491   0.05721   0.03999  -0.0208   1.0001   0.9999
   4.600   0.2440   0.05643   0.03919  -0.0204   1.0001   0.9999
   4.500   0.2389   0.05566   0.03840  -0.0201   1.0001   0.9999
   4.400   0.2337   0.05489   0.03763  -0.0197   1.0001   0.9999
   4.300   0.2286   0.05414   0.03687  -0.0194   1.0001   0.9999
   4.200   0.2233   0.05340   0.03612  -0.0191   1.0001   0.9999
   4.100   0.2181   0.05268   0.03538  -0.0187   1.0001   0.9999
   4.000   0.2128   0.05196   0.03466  -0.0184   1.0001   0.9999
   3.900   0.2075   0.05125   0.03395  -0.0181   1.0001   0.9999
   3.800   0.2021   0.05056   0.03325  -0.0178   1.0001   0.9999
   3.700   0.1967   0.04987   0.03256  -0.0175   1.0001   0.9999
   3.600   0.1913   0.04920   0.03188  -0.0172   1.0001   0.9999
   3.500   0.1859   0.04853   0.03122  -0.0169   1.0001   0.9999
   3.400   0.1804   0.04788   0.03057  -0.0166   1.0001   0.9999
   3.300   0.1749   0.04724   0.02994  -0.0163   1.0001   0.9999
   3.200   0.1693   0.04662   0.02931  -0.0160   1.0001   0.9999
   3.100   0.1637   0.04600   0.02870  -0.0157   1.0001   0.9999
   3.000   0.1581   0.04539   0.02810  -0.0155   1.0001   0.9999
   2.900   0.1525   0.04479   0.02752  -0.0152   1.0001   0.9999
   2.800   0.1468   0.04421   0.02695  -0.0150   1.0001   0.9999
   2.700   0.1411   0.04364   0.02638  -0.0147   1.0001   0.9999
   2.600   0.1354   0.04307   0.02584  -0.0145   1.0001   0.9999
   2.500   0.1296   0.04252   0.02530  -0.0143   1.0001   0.9999
   2.400   0.1239   0.04198   0.02478  -0.0141   1.0001   0.9999
   2.300   0.1181   0.04145   0.02427  -0.0139   1.0001   0.9999
   2.200   0.1122   0.04093   0.02378  -0.0137   1.0001   0.9999
   2.100   0.1064   0.04043   0.02330  -0.0135   1.0001   0.9999
   2.000   0.1005   0.03993   0.02283  -0.0133   1.0001   0.9999
   1.900   0.0946   0.03944   0.02237  -0.0131   1.0001   0.9999
   1.800   0.0887   0.03897   0.02193  -0.0130   1.0001   0.9999
   1.700   0.0827   0.03850   0.02150  -0.0129   1.0001   0.9999
   1.600   0.0768   0.03805   0.02109  -0.0127   1.0001   0.9999
   1.500   0.0708   0.03761   0.02068  -0.0126   1.0001   0.9999
   1.400   0.0649   0.03718   0.02029  -0.0125   1.0001   0.9999
   1.300   0.0589   0.03676   0.01992  -0.0124   1.0001   0.9999
   1.200   0.0530   0.03635   0.01956  -0.0123   1.0001   0.9999
   1.100   0.0470   0.03596   0.01921  -0.0123   1.0001   0.9999
   1.000   0.0410   0.03557   0.01887  -0.0122   1.0001   0.9999
   0.900   0.0350   0.03520   0.01855  -0.0122   1.0001   0.9999
   0.800   0.0291   0.03483   0.01824  -0.0122   1.0001   0.9999
   0.700   0.0231   0.03448   0.01794  -0.0122   1.0001   0.9999
   0.600   0.0171   0.03413   0.01766  -0.0122   1.0001   0.9999
   0.500   0.0112   0.03380   0.01739  -0.0122   1.0001   0.9999
   0.400   0.0052   0.03348   0.01713  -0.0123   1.0001   0.9999
   0.300  -0.0007   0.03316   0.01689  -0.0123   1.0001   0.9999
   0.200  -0.0066   0.03286   0.01666  -0.0124   1.0001   0.9999
   0.100  -0.0125   0.03257   0.01644  -0.0125   1.0001   0.9999
  -0.000  -0.0183   0.03229   0.01624  -0.0126   1.0001   0.9999
  -0.100  -0.0241   0.03202   0.01605  -0.0128   1.0001   0.9999
  -0.200  -0.0298   0.03176   0.01587  -0.0129   1.0001   0.9999
  -0.300  -0.0355   0.03151   0.01571  -0.0131   1.0001   0.9999
  -0.400  -0.0412   0.03127   0.01556  -0.0133   1.0001   0.9999
  -0.500  -0.0467   0.03104   0.01543  -0.0135   1.0001   0.9999
  -0.600  -0.0521   0.03082   0.01530  -0.0138   1.0001   0.9999
  -0.700  -0.0574   0.03061   0.01519  -0.0141   1.0001   0.9999
  -0.800  -0.0627   0.03042   0.01510  -0.0144   1.0001   0.9999
  -0.900  -0.0677   0.03023   0.01502  -0.0147   1.0001   0.9999
  -1.000  -0.0726   0.03006   0.01496  -0.0151   1.0001   0.9999
  -1.100  -0.0773   0.02990   0.01491  -0.0155   1.0001   0.9999
  -1.200  -0.0817   0.02974   0.01487  -0.0160   1.0001   0.9999
  -1.300  -0.0859   0.02961   0.01485  -0.0165   1.0001   0.9999
  -1.400  -0.0898   0.02948   0.01484  -0.0171   1.0001   0.9999
  -1.500  -0.0933   0.02937   0.01485  -0.0177   1.0001   0.9999
  -1.600  -0.0964   0.02927   0.01488  -0.0184   1.0001   0.9999
  -1.700  -0.0989   0.02919   0.01492  -0.0191   1.0001   0.9999
  -1.800  -0.1008   0.02913   0.01498  -0.0200   1.0001   0.9999
  -1.900  -0.1019   0.02909   0.01506  -0.0209   1.0001   0.9999
  -2.000  -0.1023   0.02907   0.01516  -0.0219   1.0001   0.9999
  -2.100  -0.1017   0.02908   0.01528  -0.0230   1.0001   0.9999
  -2.200  -0.1003   0.02912   0.01542  -0.0243   1.0001   0.9999
  -2.300  -0.0981   0.02919   0.01558  -0.0255   1.0001   0.9999
  -2.400  -0.0949   0.02930   0.01576  -0.0269   1.0001   0.9999
  -2.500  -0.0909   0.02946   0.01597  -0.0283   1.0001   0.9999
  -2.600  -0.0863   0.02966   0.01620  -0.0298   1.0001   0.9999
  -2.700  -0.0816   0.02990   0.01646  -0.0311   1.0001   0.9999
  -2.800  -0.0773   0.03018   0.01675  -0.0323   1.0001   0.9999
  -2.900  -0.0736   0.03052   0.01709  -0.0333   1.0001   0.9999
  -3.000  -0.0708   0.03089   0.01748  -0.0341   1.0001   0.9999
  -3.100  -0.0686   0.03131   0.01791  -0.0346   1.0001   0.9999
  -3.200  -0.0672   0.03177   0.01839  -0.0350   1.0001   0.9999
  -3.300  -0.0663   0.03227   0.01891  -0.0351   1.0001   0.9999
  -3.400  -0.0659   0.03281   0.01947  -0.0352   1.0001   0.9999
  -3.500  -0.0659   0.03339   0.02007  -0.0350   1.0001   0.9999
  -3.600  -0.0663   0.03400   0.02071  -0.0348   1.0001   0.9999
  -3.700  -0.0670   0.03464   0.02139  -0.0344   1.0001   0.9999
  -3.800  -0.0680   0.03532   0.02211  -0.0340   1.0001   0.9999
  -3.900  -0.0691   0.03603   0.02285  -0.0335   1.0001   0.9999
  -4.000  -0.0706   0.03678   0.02363  -0.0328   1.0001   0.9999
  -4.100  -0.0722   0.03755   0.02444  -0.0322   1.0001   0.9999
  -4.200  -0.4168   0.04228   0.03210   0.0107   1.0001   0.6497
  -4.300  -0.4230   0.04296   0.03277   0.0081   1.0001   0.6222
  -4.400  -0.4284   0.04370   0.03351   0.0056   1.0001   0.5967
  -4.500  -0.4337   0.04448   0.03427   0.0034   1.0001   0.5728
  -4.600  -0.4390   0.04529   0.03507   0.0012   1.0001   0.5500
  -4.700  -0.4443   0.04616   0.03594  -0.0008   1.0001   0.5286
  -4.800  -0.4501   0.04702   0.03677  -0.0028   1.0001   0.5082
  -4.900  -0.4553   0.04806   0.03782  -0.0042   1.0001   0.4894
  -5.000  -0.4602   0.04920   0.03898  -0.0054   1.0001   0.4726
  -5.100  -0.4667   0.05023   0.04001  -0.0068   1.0001   0.4552
  -5.200  -0.4724   0.05151   0.04133  -0.0076   1.0001   0.4402
  -5.300  -0.4784   0.05278   0.04262  -0.0084   1.0001   0.4261
  -5.400  -0.4836   0.05421   0.04409  -0.0089   1.0001   0.4138
  -5.500  -0.4893   0.05557   0.04548  -0.0095   1.0001   0.4021
  -5.600  -0.4941   0.05711   0.04706  -0.0097   1.0001   0.3923
  -5.700  -0.4991   0.05863   0.04861  -0.0100   1.0001   0.3832
  -5.800  -0.5023   0.06042   0.05046  -0.0096   1.0001   0.3768
  -5.900  -0.5074   0.06196   0.05202  -0.0099   1.0001   0.3691
  -6.000  -0.5103   0.06378   0.05389  -0.0095   1.0001   0.3641
  -6.100  -0.5133   0.06559   0.05573  -0.0091   1.0001   0.3595
  -6.200  -0.5135   0.06768   0.05786  -0.0080   1.0001   0.3579
  -6.300  -0.5162   0.06952   0.05971  -0.0077   1.0001   0.3544
  -6.400  -0.5159   0.07159   0.06181  -0.0066   1.0001   0.3538
  -6.500  -0.5156   0.07366   0.06388  -0.0056   1.0001   0.3534
  -6.600  -0.5152   0.07570   0.06593  -0.0045   1.0001   0.3535
  -6.700  -0.5148   0.07775   0.06797  -0.0035   1.0001   0.3540
  -6.800  -0.5149   0.07977   0.06998  -0.0025   1.0001   0.3547
  -7.000  -0.5075   0.08410   0.07425   0.0007   1.0001   0.3624
  -7.100  -0.5080   0.08612   0.07624   0.0017   1.0001   0.3643
  -7.200  -0.5051   0.08824   0.07833   0.0033   1.0001   0.3692
  -7.300  -0.4979   0.09036   0.08039   0.0054   1.0001   0.3773
  -7.400  -0.4961   0.09243   0.08242   0.0069   1.0001   0.3832
  -7.500  -0.4895   0.09436   0.08428   0.0085   1.0001   0.3925
  -7.600  -0.4814   0.09625   0.08610   0.0103   1.0001   0.4047
  -7.700  -0.4781   0.09830   0.08809   0.0120   1.0001   0.4167
  -7.800  -0.4704   0.10028   0.09000   0.0142   1.0001   0.4358
  -7.900  -0.4575   0.10219   0.09181   0.0174   1.0001   0.4684
  -8.000  -0.1932   0.08170   0.06996   0.0005   1.0001   0.9999
  -8.100  -0.1969   0.08308   0.07136   0.0012   1.0001   0.9999
  -8.200  -0.2006   0.08447   0.07277   0.0019   1.0001   0.9999
  -8.300  -0.2043   0.08587   0.07418   0.0026   1.0001   0.9999
  -8.400  -0.2080   0.08727   0.07560   0.0033   1.0001   0.9999
  -8.500  -0.2117   0.08868   0.07702   0.0040   1.0001   0.9999
  -8.600  -0.2277   0.09183   0.08025   0.0078   1.0001   0.9927
  -8.700  -0.2589   0.09707   0.08562   0.0152   1.0001   0.9685
  -8.800  -0.2821   0.10102   0.08968   0.0203   1.0001   0.9419
  -8.900  -0.3015   0.10450   0.09325   0.0241   1.0001   0.9170
  -9.000  -0.3175   0.10753   0.09634   0.0269   1.0001   0.8938
  -9.100  -0.3296   0.11002   0.09888   0.0287   1.0001   0.8727
  -9.200  -0.3413   0.11249   0.10139   0.0302   1.0001   0.8530
  -9.300  -0.3529   0.11500   0.10394   0.0317   1.0001   0.8345
  -9.400  -0.3645   0.11756   0.10653   0.0331   1.0001   0.8166
  -9.500  -0.3717   0.11942   0.10840   0.0336   1.0001   0.8004
  -9.600  -0.3802   0.12151   0.11051   0.0344   1.0001   0.7844
  -9.700  -0.3888   0.12365   0.11267   0.0351   1.0001   0.7693
  -9.800  -0.3961   0.12559   0.11463   0.0356   1.0001   0.7550
  -9.900  -0.4028   0.12744   0.11649   0.0359   1.0001   0.7411
 -10.000  -0.4098   0.12937   0.11842   0.0363   1.0001   0.7281
  25.000   1.1484   0.32740   0.31651  -0.1559   0.2019   0.9999
  24.900   1.1449   0.32613   0.31522  -0.1550   0.2039   0.9999
  24.800   1.1433   0.32638   0.31547  -0.1538   0.2052   0.9999
  24.700   1.1384   0.32391   0.31298  -0.1531   0.2070   0.9999
  24.600   1.1356   0.32314   0.31220  -0.1522   0.2089   0.9999
  24.500   1.1330   0.32247   0.31154  -0.1511   0.2103   0.9999
  24.400   1.1286   0.32053   0.30958  -0.1504   0.2123   0.9999
  24.300   1.1266   0.32042   0.30946  -0.1493   0.2140   0.9999
  24.200   1.1224   0.31849   0.30752  -0.1485   0.2156   0.9999
  24.100   1.1191   0.31744   0.30646  -0.1477   0.2176   0.9999
  24.000   1.1170   0.31723   0.30626  -0.1465   0.2191   0.9999
  23.900   1.1123   0.31499   0.30399  -0.1459   0.2212   0.9999
  23.800   1.1102   0.31483   0.30383  -0.1448   0.2230   0.9999
  23.700   1.1059   0.31289   0.30188  -0.1441   0.2248   0.9999
  23.600   1.1027   0.31195   0.30092  -0.1432   0.2269   0.9999
  23.500   1.1001   0.31120   0.30018  -0.1422   0.2285   0.9999
  23.400   1.0957   0.30938   0.29834  -0.1415   0.2307   0.9999
  23.300   1.0942   0.30960   0.29856  -0.1403   0.2324   0.9999
  23.200   1.0890   0.30707   0.29602  -0.1398   0.2346   0.9999
  23.100   1.0868   0.30675   0.29569  -0.1387   0.2366   0.9999
  23.000   1.0825   0.30485   0.29378  -0.1380   0.2385   0.9999
  22.900   1.0795   0.30408   0.29300  -0.1371   0.2408   0.9999
  22.800   1.0762   0.30283   0.29176  -0.1362   0.2426   0.9999
  22.700   1.0724   0.30151   0.29041  -0.1354   0.2450   0.9999
  22.600   1.0699   0.30086   0.28977  -0.1344   0.2467   0.9999
  22.500   1.0655   0.29905   0.28793  -0.1338   0.2492   0.9999
  22.400   1.0635   0.29874   0.28764  -0.1327   0.2511   0.9999
  22.300   1.0586   0.29664   0.28551  -0.1321   0.2536   0.9999
  22.200   1.0569   0.29659   0.28547  -0.1310   0.2555   0.9999
  22.100   1.0517   0.29425   0.28311  -0.1305   0.2581   0.9999
  22.000   1.0503   0.29433   0.28320  -0.1294   0.2600   0.9999
  21.900   1.0449   0.29187   0.28071  -0.1288   0.2626   0.9999
  21.800   1.0433   0.29183   0.28068  -0.1278   0.2647   0.9999
  21.700   1.0380   0.28950   0.27833  -0.1272   0.2674   0.9999
  21.600   1.0360   0.28916   0.27799  -0.1262   0.2695   0.9999
  21.500   1.0312   0.28714   0.27596  -0.1256   0.2722   0.9999
  21.400   1.0287   0.28649   0.27531  -0.1247   0.2743   0.9999
  21.300   1.0245   0.28484   0.27364  -0.1240   0.2771   0.9999
  21.200   1.0212   0.28368   0.27248  -0.1232   0.2794   0.9999
  21.100   1.0180   0.28268   0.27147  -0.1224   0.2822   0.9999
  21.000   1.0138   0.28099   0.26978  -0.1217   0.2847   0.9999
  20.900   1.0118   0.28066   0.26944  -0.1208   0.2873   0.9999
  20.800   1.0067   0.27847   0.26723  -0.1202   0.2901   0.9999
  20.700   1.0049   0.27816   0.26693  -0.1193   0.2925   0.9999
  20.600   1.0001   0.27619   0.26494  -0.1187   0.2956   0.9999
  20.500   0.9966   0.27494   0.26368  -0.1179   0.2981   0.9999
  20.400   0.9941   0.27425   0.26298  -0.1171   0.3010   0.9999
  20.300   0.9892   0.27223   0.26095  -0.1165   0.3038   0.9999
  20.200   0.9872   0.27176   0.26050  -0.1156   0.3065   0.9999
  20.100   0.9828   0.27006   0.25877  -0.1150   0.3097   0.9999
