  
       XFOIL         Version 6.99
  
 Calculated polar for: s1075                                           
  
 1 1 Reynolds number fixed          Mach number fixed         
  
 xtrf =   1.000 (top)        1.000 (bottom)  
 Mach =   0.000     Re =     0.060 e 6     Ncrit =   9.000
  
   alpha    CL        CD       CDp       CM     Top_Xtr  Bot_Xtr
  ------ -------- --------- --------- -------- -------- --------
  20.000   0.9878   0.25855   0.25202  -0.1053   0.1136   0.9999
  19.900   0.9818   0.25666   0.25012  -0.1053   0.1149   0.9999
  19.800   0.9787   0.25544   0.24889  -0.1044   0.1167   0.9999
  19.700   0.9784   0.25460   0.24806  -0.1027   0.1177   0.9999
  19.600   0.9722   0.25266   0.24612  -0.1026   0.1191   0.9999
  19.500   0.9693   0.25145   0.24490  -0.1017   0.1209   0.9999
  19.300   0.9626   0.24865   0.24210  -0.1001   0.1236   0.9999
  19.200   0.9602   0.24752   0.24097  -0.0990   0.1255   0.9999
  19.100   0.9584   0.24628   0.23974  -0.0978   0.1265   0.9999
  19.000   0.9530   0.24463   0.23807  -0.0976   0.1284   0.9999
  18.900   0.9519   0.24360   0.23705  -0.0962   0.1301   0.9999
  18.800   0.9477   0.24199   0.23544  -0.0956   0.1314   0.9999
  18.700   0.9440   0.24062   0.23407  -0.0949   0.1335   0.9999
  18.500   0.9375   0.23780   0.23124  -0.0933   0.1367   0.9999
  18.300   0.9321   0.23509   0.22853  -0.0915   0.1401   0.9999
  18.200   0.9289   0.23378   0.22722  -0.0907   0.1424   0.9999
  18.100   0.9277   0.23254   0.22599  -0.0895   0.1437   0.9999
  18.000   0.9222   0.23088   0.22432  -0.0893   0.1461   0.9999
  17.900   0.9231   0.22998   0.22343  -0.0876   0.1476   0.9999
  17.800   0.9162   0.22806   0.22150  -0.0877   0.1499   0.9999
  17.700   0.9162   0.22706   0.22050  -0.0862   0.1518   0.9999
  17.600   0.9103   0.22523   0.21866  -0.0861   0.1539   0.9999
  17.500   0.9097   0.22415   0.21758  -0.0848   0.1561   0.9999
  17.400   0.9046   0.22240   0.21583  -0.0845   0.1580   0.9999
  17.300   0.9035   0.22126   0.21469  -0.0834   0.1603   0.9999
  17.200   0.8989   0.21956   0.21298  -0.0830   0.1623   0.9999
  17.100   0.8979   0.21841   0.21184  -0.0819   0.1648   0.9999
  17.000   0.8931   0.21669   0.21011  -0.0815   0.1668   0.9999
  16.900   0.8925   0.21555   0.20897  -0.0803   0.1692   0.9999
  16.800   0.8873   0.21381   0.20722  -0.0801   0.1715   0.9999
  16.700   0.8876   0.21271   0.20613  -0.0788   0.1738   0.9999
  16.600   0.8816   0.21091   0.20431  -0.0786   0.1763   0.9999
  16.500   0.8831   0.20988   0.20330  -0.0772   0.1784   0.9999
  16.400   0.8764   0.20804   0.20143  -0.0772   0.1813   0.9999
  16.300   0.8774   0.20685   0.20026  -0.0759   0.1831   0.9999
  16.200   0.8717   0.20519   0.19857  -0.0757   0.1863   0.9999
  16.100   0.8694   0.20365   0.19703  -0.0750   0.1884   0.9999
  16.000   0.8679   0.20235   0.19573  -0.0741   0.1913   0.9999
  15.900   0.8630   0.20065   0.19402  -0.0738   0.1940   0.9999
  15.800   0.8648   0.19954   0.19292  -0.0725   0.1962   0.9999
  15.700   0.8584   0.19777   0.19112  -0.0724   0.1995   0.9999
  15.600   0.8567   0.19625   0.18960  -0.0717   0.2018   0.9999
  15.500   0.8556   0.19494   0.18829  -0.0708   0.2049   0.9999
  15.400   0.8504   0.19324   0.18657  -0.0706   0.2080   0.9999
  15.200   0.8478   0.19042   0.18374  -0.0691   0.2137   0.9999
  15.100   0.8432   0.18876   0.18206  -0.0688   0.2169   0.9999
  14.900   0.8414   0.18595   0.17925  -0.0673   0.2229   0.9999
  14.800   0.8365   0.18429   0.17757  -0.0671   0.2264   0.9999
  14.700   0.8350   0.18277   0.17604  -0.0664   0.2292   0.9999
  14.600   0.8361   0.18149   0.17476  -0.0655   0.2323   0.9999
  14.500   0.8310   0.17985   0.17310  -0.0654   0.2361   0.9999
  14.400   0.8273   0.17825   0.17148  -0.0650   0.2396   0.9999
  14.300   0.8285   0.17682   0.17006  -0.0641   0.2421   0.9999
  14.200   0.8270   0.17541   0.16863  -0.0636   0.2458   0.9999
  14.100   0.8226   0.17381   0.16701  -0.0634   0.2498   0.9999
  14.000   0.8190   0.17221   0.16539  -0.0631   0.2534   0.9999
  13.900   0.8180   0.17070   0.16386  -0.0625   0.2566   0.9999
  13.800   0.8198   0.16935   0.16252  -0.0617   0.2597   0.9999
  13.700   0.8156   0.16778   0.16092  -0.0615   0.2638   0.9999
  13.600   0.8117   0.16620   0.15932  -0.0613   0.2677   0.9999
  13.500   0.8093   0.16463   0.15773  -0.0609   0.2712   0.9999
  13.400   0.8137   0.16326   0.15637  -0.0600   0.2736   0.9999
  13.300   0.8096   0.16171   0.15479  -0.0598   0.2779   0.9999
  13.200   0.8056   0.16014   0.15319  -0.0596   0.2820   0.9999
  13.100   0.8023   0.15856   0.15159  -0.0594   0.2857   0.9999
  13.000   0.8077   0.15708   0.15012  -0.0584   0.2875   0.9999
  12.900   0.8037   0.15553   0.14854  -0.0583   0.2918   0.9999
  12.800   0.7996   0.15396   0.14694  -0.0581   0.2959   0.9999
  12.700   0.7963   0.15235   0.14531  -0.0579   0.2994   0.9999
  12.600   0.8010   0.15076   0.14372  -0.0571   0.3012   0.9999
  12.300   1.2698   0.05853   0.05071  -0.0016   0.0989   0.9999
  12.200   1.2756   0.05719   0.04921  -0.0028   0.1003   0.9999
  12.100   1.2730   0.05612   0.04814  -0.0035   0.1035   0.9999
  12.000   1.2796   0.05467   0.04647  -0.0048   0.1050   0.9999
  11.700   1.2722   0.05156   0.04334  -0.0070   0.1164   0.9999
  11.600   1.2706   0.05052   0.04226  -0.0078   0.1204   0.9999
  11.500   1.2692   0.04950   0.04120  -0.0087   0.1248   0.9999
  11.400   1.2682   0.04850   0.04014  -0.0096   0.1295   0.9999
  11.300   1.2676   0.04748   0.03906  -0.0106   0.1344   0.9999
  11.200   1.2631   0.04674   0.03838  -0.0113   0.1404   0.9999
  11.100   1.2609   0.04591   0.03754  -0.0121   0.1464   0.9999
  11.000   1.2601   0.04499   0.03653  -0.0132   0.1523   0.9999
  10.900   1.2553   0.04441   0.03602  -0.0139   0.1595   0.9999
  10.800   1.2521   0.04371   0.03533  -0.0147   0.1664   0.9999
  10.700   1.2498   0.04297   0.03453  -0.0157   0.1736   0.9999
  10.600   1.2446   0.04249   0.03411  -0.0164   0.1815   0.9999
  10.500   1.2401   0.04196   0.03360  -0.0172   0.1894   0.9999
  10.400   1.2360   0.04140   0.03302  -0.0180   0.1974   0.9999
  10.300   1.2327   0.04079   0.03234  -0.0189   0.2054   0.9999
  10.200   1.2269   0.04038   0.03195  -0.0196   0.2140   0.9999
  10.100   1.2205   0.04003   0.03163  -0.0203   0.2226   0.9999
  10.000   1.2138   0.03969   0.03131  -0.0209   0.2311   0.9999
   9.900   1.2071   0.03934   0.03097  -0.0216   0.2396   0.9999
   9.800   1.2004   0.03896   0.03059  -0.0222   0.2480   0.9999
   9.700   1.1939   0.03857   0.03016  -0.0229   0.2564   0.9999
   9.600   1.1878   0.03812   0.02965  -0.0236   0.2647   0.9999
   9.500   1.1795   0.03787   0.02942  -0.0241   0.2730   0.9999
   9.400   1.1708   0.03765   0.02922  -0.0246   0.2812   0.9999
   9.300   1.1629   0.03736   0.02890  -0.0252   0.2893   0.9999
   9.200   1.1558   0.03697   0.02846  -0.0258   0.2974   0.9999
   9.100   1.1474   0.03671   0.02818  -0.0263   0.3054   0.9999
   9.000   1.1380   0.03654   0.02802  -0.0267   0.3131   0.9999
   8.900   1.1301   0.03621   0.02764  -0.0273   0.3209   0.9999
   8.800   1.1220   0.03589   0.02728  -0.0278   0.3287   0.9999
   8.700   1.1120   0.03576   0.02716  -0.0282   0.3362   0.9999
   8.600   1.1042   0.03538   0.02672  -0.0287   0.3438   0.9999
   8.500   1.0945   0.03522   0.02656  -0.0291   0.3511   0.9999
   8.400   1.0856   0.03495   0.02625  -0.0296   0.3584   0.9999
   8.300   1.0768   0.03466   0.02591  -0.0300   0.3658   0.9999
   8.200   1.0671   0.03447   0.02571  -0.0304   0.3728   0.9999
   8.100   1.0588   0.03412   0.02529  -0.0309   0.3801   0.9999
   8.000   1.0485   0.03398   0.02515  -0.0313   0.3869   0.9999
   7.900   1.0400   0.03364   0.02475  -0.0317   0.3941   0.9999
   7.800   1.0299   0.03347   0.02457  -0.0321   0.4007   0.9999
   7.700   1.0208   0.03319   0.02425  -0.0325   0.4077   0.9999
   7.600   1.0112   0.03295   0.02398  -0.0329   0.4144   0.9999
   7.500   1.0014   0.03276   0.02375  -0.0333   0.4210   0.9999
   7.400   0.9926   0.03243   0.02336  -0.0337   0.4280   0.9999
   7.300   0.9822   0.03229   0.02322  -0.0341   0.4343   0.9999
   7.200   0.9739   0.03189   0.02273  -0.0344   0.4415   0.9999
   7.100   0.9631   0.03179   0.02265  -0.0348   0.4476   0.9999
   7.000   0.9534   0.03157   0.02239  -0.0352   0.4541   0.9999
   6.900   0.9443   0.03127   0.02203  -0.0355   0.4609   0.9999
   6.800   0.9339   0.03113   0.02189  -0.0359   0.4670   0.9999
   6.700   0.9246   0.03083   0.02154  -0.0362   0.4738   0.9999
   6.600   0.9147   0.03063   0.02131  -0.0366   0.4801   0.9999
   6.500   0.9045   0.03047   0.02113  -0.0370   0.4862   0.9999
   6.400   0.8957   0.03011   0.02070  -0.0373   0.4933   0.9999
   6.300   0.8851   0.03000   0.02059  -0.0377   0.4991   0.9999
   6.200   0.8750   0.02983   0.02040  -0.0381   0.5053   0.9999
   6.100   0.8660   0.02949   0.02000  -0.0383   0.5123   0.9999
   6.000   0.8555   0.02938   0.01988  -0.0387   0.5180   0.9999
   5.900   0.8454   0.02921   0.01970  -0.0391   0.5241   0.9999
   5.800   0.8363   0.02889   0.01932  -0.0394   0.5311   0.9999
   5.700   0.8258   0.02878   0.01921  -0.0398   0.5368   0.9999
   5.600   0.8157   0.02863   0.01904  -0.0402   0.5429   0.9999
   5.500   0.8066   0.02831   0.01867  -0.0405   0.5499   0.9999
   5.400   0.7961   0.02821   0.01857  -0.0409   0.5556   0.9999
   5.300   0.7859   0.02807   0.01842  -0.0413   0.5616   0.9999
   5.200   0.7765   0.02781   0.01812  -0.0416   0.5684   0.9999
   5.100   0.7663   0.02767   0.01796  -0.0420   0.5744   0.9999
   5.000   0.7561   0.02754   0.01783  -0.0424   0.5803   0.9999
   4.900   0.7464   0.02733   0.01759  -0.0427   0.5868   0.9999
   4.800   0.7366   0.02715   0.01739  -0.0431   0.5931   0.9999
   4.700   0.7264   0.02703   0.01727  -0.0435   0.5989   0.9999
   4.600   0.7165   0.02686   0.01708  -0.0439   0.6052   0.9999
   4.500   0.7069   0.02665   0.01684  -0.0442   0.6118   0.9999
   4.400   0.6967   0.02654   0.01674  -0.0447   0.6176   0.9999
   4.300   0.6867   0.02640   0.01658  -0.0451   0.6238   0.9999
   4.200   0.6773   0.02617   0.01633  -0.0454   0.6306   0.9999
   4.000   0.6571   0.02595   0.01611  -0.0463   0.6424   0.9999
   3.900   0.6478   0.02571   0.01584  -0.0467   0.6494   0.9999
   3.800   0.6376   0.02562   0.01576  -0.0472   0.6550   0.9999
   3.700   0.6277   0.02551   0.01565  -0.0476   0.6611   0.9999
   3.600   0.6183   0.02529   0.01542  -0.0480   0.6679   0.9999
   3.500   0.6083   0.02519   0.01531  -0.0485   0.6738   0.9999
   3.400   0.5984   0.02508   0.01521  -0.0490   0.6798   0.9999
   3.300   0.5889   0.02490   0.01502  -0.0494   0.6865   0.9999
   3.200   0.5792   0.02476   0.01488  -0.0498   0.6927   0.9999
   3.100   0.5693   0.02465   0.01479  -0.0503   0.6987   0.9999
   3.000   0.5598   0.02449   0.01462  -0.0508   0.7053   0.9999
   2.900   0.5503   0.02434   0.01448  -0.0512   0.7117   0.9999
   2.800   0.5404   0.02424   0.01438  -0.0518   0.7176   0.9999
   2.700   0.5310   0.02408   0.01423  -0.0522   0.7243   0.9999
   2.600   0.5215   0.02393   0.01409  -0.0527   0.7307   0.9999
   2.500   0.5117   0.02383   0.01400  -0.0532   0.7368   0.9999
   2.400   0.5023   0.02368   0.01385  -0.0537   0.7435   0.9999
   2.300   0.4928   0.02354   0.01372  -0.0542   0.7499   0.9999
   2.200   0.4830   0.02344   0.01364  -0.0548   0.7560   0.9999
   2.100   0.4738   0.02327   0.01348  -0.0552   0.7630   0.9999
   2.000   0.4640   0.02316   0.01339  -0.0557   0.7692   0.9999
   1.900   0.4542   0.02305   0.01330  -0.0563   0.7755   0.9999
   1.800   0.4452   0.02288   0.01313  -0.0567   0.7827   0.9999
   1.700   0.4351   0.02279   0.01307  -0.0572   0.7888   0.9999
   1.600   0.4253   0.02267   0.01297  -0.0577   0.7954   0.9999
   1.500   0.4158   0.02253   0.01285  -0.0582   0.8023   0.9999
   1.400   0.4055   0.02244   0.01279  -0.0586   0.8086   0.9999
   1.300   0.3963   0.02228   0.01264  -0.0591   0.8160   0.9999
   1.200   0.3853   0.02221   0.01260  -0.0594   0.8222   0.9999
   1.100   0.3749   0.02210   0.01251  -0.0597   0.8290   0.9999
   1.000   0.3645   0.02199   0.01242  -0.0600   0.8359   0.9999
   0.900   0.3530   0.02191   0.01237  -0.0602   0.8425   0.9999
   0.800   0.3426   0.02178   0.01227  -0.0604   0.8498   0.9999
   0.700   0.3298   0.02173   0.01225  -0.0603   0.8561   0.9999
   0.600   0.3190   0.02160   0.01215  -0.0605   0.8637   0.9999
   0.500   0.3046   0.02156   0.01215  -0.0601   0.8699   0.9999
   0.400   0.2912   0.02149   0.01210  -0.0597   0.8768   0.9999
   0.300   0.2768   0.02143   0.01208  -0.0592   0.8837   0.9999
   0.200   0.2608   0.02139   0.01208  -0.0583   0.8902   0.9999
   0.100   0.2460   0.02132   0.01204  -0.0576   0.8973   0.9999
  -0.000   0.2273   0.02131   0.01207  -0.0562   0.9034   0.9999
  -0.100   0.2092   0.02127   0.01208  -0.0549   0.9100   0.9999
  -0.200   0.1908   0.02123   0.01208  -0.0534   0.9166   0.9999
  -0.300   0.1696   0.02122   0.01212  -0.0514   0.9225   0.9999
  -0.400   0.1483   0.02119   0.01215  -0.0493   0.9287   0.9999
  -0.500   0.1268   0.02115   0.01216  -0.0471   0.9351   0.9999
  -0.600   0.1023   0.02113   0.01221  -0.0442   0.9406   0.9999
  -0.700   0.0786   0.02108   0.01223  -0.0416   0.9462   0.9999
  -0.800   0.0560   0.02101   0.01224  -0.0390   0.9523   0.9999
  -0.900   0.0342   0.02092   0.01224  -0.0366   0.9587   0.9999
  -1.000   0.0105   0.02083   0.01224  -0.0338   0.9643   0.9999
  -1.100  -0.0126   0.02072   0.01224  -0.0310   0.9702   0.9999
  -1.200  -0.0350   0.02061   0.01223  -0.0284   0.9765   0.9999
  -1.300  -0.0590   0.02047   0.01222  -0.0254   0.9819   0.9999
  -1.400  -0.0827   0.02033   0.01221  -0.0224   0.9877   0.9999
  -1.500  -0.1068   0.02018   0.01221  -0.0192   0.9932   0.9999
  -1.600  -0.1313   0.02002   0.01221  -0.0160   0.9987   0.9999
  -1.700  -0.1412   0.01987   0.01217  -0.0153   1.0001   0.9999
  -1.800  -0.1446   0.01973   0.01214  -0.0156   1.0001   0.9999
  -1.900  -0.1463   0.01963   0.01215  -0.0162   1.0001   0.9999
  -2.000  -0.1446   0.01959   0.01221  -0.0171   1.0001   0.9999
  -2.100  -0.1354   0.01967   0.01236  -0.0190   1.0001   0.9999
  -2.200  -0.1243   0.01986   0.01259  -0.0206   1.0001   0.9968
  -2.300  -0.2036   0.01949   0.01258  -0.0080   1.0001   0.9439
  -2.400  -0.2440   0.01917   0.01238  -0.0032   1.0001   0.8843
  -2.500  -0.2573   0.01908   0.01224  -0.0036   1.0001   0.8383
  -2.600  -0.2637   0.01908   0.01214  -0.0051   1.0001   0.8008
  -2.700  -0.2689   0.01911   0.01207  -0.0068   1.0001   0.7672
  -2.800  -0.2741   0.01915   0.01202  -0.0083   1.0001   0.7356
  -2.900  -0.2796   0.01921   0.01197  -0.0097   1.0001   0.7054
  -3.000  -0.2853   0.01929   0.01194  -0.0110   1.0001   0.6757
  -3.100  -0.2912   0.01937   0.01192  -0.0122   1.0001   0.6468
  -3.200  -0.2973   0.01947   0.01190  -0.0134   1.0001   0.6186
  -3.300  -0.3035   0.01957   0.01190  -0.0144   1.0001   0.5902
  -3.400  -0.3099   0.01969   0.01192  -0.0154   1.0001   0.5621
  -3.500  -0.3162   0.01982   0.01194  -0.0164   1.0001   0.5344
  -3.600  -0.3225   0.01997   0.01197  -0.0173   1.0001   0.5072
  -3.700  -0.3288   0.02014   0.01202  -0.0183   1.0001   0.4803
  -3.800  -0.3352   0.02032   0.01209  -0.0191   1.0001   0.4530
  -3.900  -0.3418   0.02054   0.01217  -0.0200   1.0001   0.4269
  -4.000  -0.3485   0.02078   0.01229  -0.0207   1.0001   0.4001
  -4.100  -0.3551   0.02104   0.01242  -0.0215   1.0001   0.3746
  -4.200  -0.3617   0.02133   0.01258  -0.0223   1.0001   0.3491
  -4.300  -0.3683   0.02165   0.01277  -0.0231   1.0001   0.3243
  -4.400  -0.3751   0.02200   0.01299  -0.0238   1.0001   0.3001
  -4.500  -0.3818   0.02237   0.01323  -0.0245   1.0001   0.2770
  -4.600  -0.3887   0.02277   0.01348  -0.0252   1.0001   0.2549
  -4.700  -0.3957   0.02321   0.01381  -0.0259   1.0001   0.2336
  -4.800  -0.4030   0.02368   0.01416  -0.0265   1.0001   0.2144
  -4.900  -0.4106   0.02421   0.01459  -0.0271   1.0001   0.1967
  -5.000  -0.4184   0.02477   0.01505  -0.0277   1.0001   0.1816
  -5.100  -0.4266   0.02538   0.01559  -0.0283   1.0001   0.1683
  -5.200  -0.4350   0.02601   0.01611  -0.0288   1.0001   0.1574
  -5.300  -0.4438   0.02668   0.01676  -0.0292   1.0001   0.1478
  -5.400  -0.4528   0.02737   0.01744  -0.0297   1.0001   0.1395
  -5.500  -0.4620   0.02812   0.01826  -0.0301   1.0001   0.1324
  -5.600  -0.4713   0.02886   0.01898  -0.0305   1.0001   0.1262
  -5.700  -0.4807   0.02962   0.01972  -0.0308   1.0001   0.1210
  -5.800  -0.4901   0.03045   0.02061  -0.0312   1.0001   0.1162
  -5.900  -0.4996   0.03130   0.02153  -0.0315   1.0001   0.1120
  -6.000  -0.5090   0.03228   0.02269  -0.0319   1.0001   0.1084
  -6.100  -0.5182   0.03332   0.02392  -0.0322   1.0001   0.1052
  -6.200  -0.5276   0.03427   0.02490  -0.0325   1.0001   0.1025
  -6.300  -0.5364   0.03547   0.02635  -0.0328   1.0001   0.1001
  -6.400  -0.5455   0.03655   0.02749  -0.0331   1.0001   0.0981
  -6.500  -0.5535   0.03801   0.02927  -0.0334   1.0001   0.0966
  -6.600  -0.5620   0.03920   0.03058  -0.0337   1.0001   0.0951
  -6.700  -0.5702   0.04049   0.03199  -0.0339   1.0001   0.0940
  -6.800  -0.5769   0.04220   0.03401  -0.0342   1.0001   0.0935
  -6.900  -0.5832   0.04397   0.03605  -0.0344   1.0001   0.0932
  -7.000  -0.5892   0.04577   0.03807  -0.0346   1.0001   0.0933
  -7.100  -0.5948   0.04761   0.04013  -0.0347   1.0001   0.0935
  -7.200  -0.6000   0.04950   0.04220  -0.0348   1.0001   0.0938
  -7.300  -0.6054   0.05130   0.04414  -0.0349   1.0001   0.0942
  -7.400  -0.6031   0.05478   0.04807  -0.0344   1.0001   0.0973
  -7.500  -0.6075   0.05672   0.05011  -0.0344   1.0001   0.0983
  -7.600  -0.6041   0.06025   0.05394  -0.0335   1.0001   0.1022
  -7.800  -0.5986   0.06703   0.06107  -0.0312   1.0001   0.1115
  -7.900  -0.5863   0.07300   0.06726  -0.0275   1.0001   0.1258
  -8.200  -0.5056   0.09743   0.09172   0.0032   1.0001   0.2545
  -8.300  -0.5114   0.09904   0.09333   0.0029   1.0001   0.2508
  -8.400  -0.5058   0.10044   0.09468   0.0039   1.0001   0.2474
  -8.500  -0.5051   0.10197   0.09618   0.0044   1.0001   0.2442
  -8.600  -0.5090   0.10356   0.09776   0.0043   1.0001   0.2408
  -8.700  -0.5112   0.10506   0.09925   0.0045   1.0001   0.2370
  -8.800  -0.5072   0.10649   0.10064   0.0053   1.0001   0.2338
  -8.900  -0.5088   0.10804   0.10218   0.0056   1.0001   0.2307
  -9.000  -0.5155   0.10969   0.10383   0.0052   1.0001   0.2272
  -9.100  -0.5102   0.11102   0.10512   0.0063   1.0001   0.2240
  -9.200  -0.5111   0.11256   0.10664   0.0067   1.0001   0.2212
  -9.300  -0.5180   0.11422   0.10829   0.0063   1.0001   0.2178
  -9.400  -0.5130   0.11553   0.10957   0.0074   1.0001   0.2147
  -9.500  -0.5144   0.11708   0.11111   0.0077   1.0001   0.2120
  -9.600  -0.5204   0.11869   0.11272   0.0075   1.0001   0.2086
  -9.700  -0.5156   0.12002   0.11400   0.0086   1.0001   0.2059
  -9.800  -0.5200   0.12165   0.11563   0.0087   1.0001   0.2033
  -9.900  -0.5202   0.12306   0.11703   0.0092   1.0001   0.2000
 -10.000  -0.5200   0.12456   0.11850   0.0098   1.0001   0.1978
