  
       XFOIL         Version 6.99
  
 Calculated polar for: s1075                                           
  
 1 1 Reynolds number fixed          Mach number fixed         
  
 xtrf =   1.000 (top)        1.000 (bottom)  
 Mach =   0.000     Re =     0.500 e 6     Ncrit =   9.000
  
   alpha    CL        CD       CDp       CM     Top_Xtr  Bot_Xtr
  ------ -------- --------- --------- -------- -------- --------
  20.000   1.2226   0.16064   0.15719  -0.0586   0.0062   0.9999
  19.900   1.2249   0.15835   0.15485  -0.0571   0.0062   0.9999
  19.800   1.2234   0.15716   0.15366  -0.0564   0.0063   0.9999
  19.700   1.2221   0.15585   0.15235  -0.0557   0.0063   0.9999
  19.600   1.2216   0.15434   0.15083  -0.0548   0.0064   0.9999
  19.500   1.2217   0.15268   0.14914  -0.0538   0.0064   0.9999
  19.400   1.2222   0.15093   0.14737  -0.0528   0.0064   0.9999
  19.300   1.2227   0.14918   0.14559  -0.0518   0.0065   0.9999
  19.200   1.2233   0.14741   0.14380  -0.0507   0.0065   0.9999
  19.100   1.2242   0.14557   0.14193  -0.0497   0.0065   0.9999
  19.000   1.2253   0.14367   0.14000  -0.0486   0.0066   0.9999
  18.900   1.2266   0.14175   0.13804  -0.0476   0.0066   0.9999
  18.800   1.2280   0.13981   0.13606  -0.0465   0.0067   0.9999
  18.700   1.2296   0.13785   0.13406  -0.0455   0.0067   0.9999
  18.600   1.2315   0.13584   0.13201  -0.0444   0.0067   0.9999
  18.500   1.2334   0.13383   0.12995  -0.0434   0.0068   0.9999
  18.400   1.2354   0.13182   0.12790  -0.0423   0.0068   0.9999
  18.300   1.2376   0.12978   0.12581  -0.0413   0.0069   0.9999
  18.200   1.2400   0.12768   0.12366  -0.0403   0.0069   0.9999
  18.100   1.2424   0.12561   0.12154  -0.0393   0.0069   0.9999
  18.000   1.2451   0.12348   0.11934  -0.0382   0.0070   0.9999
  17.900   1.2470   0.12157   0.11740  -0.0374   0.0070   0.9999
  17.800   1.2474   0.12005   0.11587  -0.0368   0.0070   0.9999
  17.700   1.2485   0.11836   0.11417  -0.0361   0.0071   0.9999
  17.600   1.2500   0.11659   0.11239  -0.0353   0.0071   0.9999
  17.500   1.2518   0.11475   0.11053  -0.0346   0.0072   0.9999
  17.400   1.2538   0.11288   0.10863  -0.0338   0.0072   0.9999
  17.300   1.2560   0.11096   0.10668  -0.0330   0.0072   0.9999
  17.200   1.2585   0.10898   0.10467  -0.0321   0.0073   0.9999
  17.100   1.2610   0.10702   0.10268  -0.0313   0.0073   0.9999
  17.000   1.2638   0.10500   0.10062  -0.0305   0.0074   0.9999
  16.900   1.2667   0.10297   0.09855  -0.0297   0.0074   0.9999
  16.800   1.2698   0.10092   0.09646  -0.0289   0.0075   0.9999
  16.700   1.2731   0.09884   0.09434  -0.0281   0.0076   0.9999
  16.600   1.2764   0.09678   0.09224  -0.0273   0.0076   0.9999
  16.500   1.2797   0.09472   0.09014  -0.0265   0.0076   0.9999
  16.400   1.2833   0.09258   0.08794  -0.0257   0.0077   0.9999
  16.300   1.2869   0.09050   0.08581  -0.0250   0.0077   0.9999
  16.200   1.2906   0.08838   0.08363  -0.0242   0.0078   0.9999
  16.100   1.2944   0.08635   0.08157  -0.0235   0.0079   0.9999
  16.000   1.2981   0.08432   0.07952  -0.0227   0.0079   0.9999
  15.900   1.3021   0.08225   0.07742  -0.0220   0.0079   0.9999
  15.800   1.3058   0.08020   0.07535  -0.0213   0.0080   0.9999
  15.700   1.3098   0.07816   0.07327  -0.0206   0.0080   0.9999
  15.600   1.3135   0.07615   0.07122  -0.0199   0.0081   0.9999
  15.500   1.3175   0.07411   0.06914  -0.0192   0.0081   0.9999
  15.400   1.3213   0.07212   0.06711  -0.0185   0.0082   0.9999
  15.300   1.3250   0.07016   0.06511  -0.0179   0.0082   0.9999
  15.200   1.3289   0.06821   0.06312  -0.0173   0.0083   0.9999
  15.100   1.3327   0.06629   0.06114  -0.0167   0.0084   0.9999
  15.000   1.3367   0.06438   0.05918  -0.0162   0.0084   0.9999
  14.900   1.3400   0.06253   0.05727  -0.0156   0.0085   0.9999
  14.800   1.3436   0.06069   0.05538  -0.0151   0.0086   0.9999
  14.700   1.3465   0.05893   0.05355  -0.0146   0.0087   0.9999
  14.600   1.3502   0.05709   0.05167  -0.0142   0.0087   0.9999
  14.500   1.3546   0.05518   0.04973  -0.0136   0.0088   0.9999
  14.400   1.3580   0.05342   0.04793  -0.0132   0.0088   0.9999
  14.300   1.3609   0.05172   0.04620  -0.0128   0.0089   0.9999
  14.200   1.3636   0.05007   0.04451  -0.0124   0.0090   0.9999
  14.100   1.3661   0.04847   0.04287  -0.0120   0.0091   0.9999
  14.000   1.3678   0.04697   0.04131  -0.0117   0.0092   0.9999
  13.900   1.3695   0.04550   0.03979  -0.0115   0.0093   0.9999
  13.800   1.3708   0.04409   0.03833  -0.0113   0.0095   0.9999
  13.700   1.3714   0.04279   0.03695  -0.0111   0.0096   0.9999
  13.600   1.3741   0.04128   0.03541  -0.0110   0.0097   0.9999
  13.500   1.3760   0.03988   0.03398  -0.0108   0.0098   0.9999
  13.400   1.3770   0.03861   0.03267  -0.0108   0.0100   0.9999
  13.300   1.3773   0.03744   0.03146  -0.0108   0.0102   0.9999
  13.200   1.3772   0.03633   0.03031  -0.0109   0.0104   0.9999
  13.100   1.3768   0.03529   0.02919  -0.0110   0.0106   0.9999
  13.000   1.3779   0.03413   0.02800  -0.0112   0.0108   0.9999
  12.900   1.3781   0.03310   0.02694  -0.0114   0.0110   0.9999
  12.800   1.3782   0.03212   0.02592  -0.0118   0.0113   0.9999
  12.700   1.3773   0.03126   0.02501  -0.0122   0.0115   0.9999
  12.600   1.3767   0.03041   0.02411  -0.0127   0.0119   0.9999
  12.500   1.3770   0.02953   0.02320  -0.0133   0.0121   0.9999
  12.400   1.3762   0.02877   0.02240  -0.0139   0.0125   0.9999
  12.300   1.3747   0.02810   0.02169  -0.0147   0.0130   0.9999
  12.200   1.3752   0.02734   0.02090  -0.0156   0.0133   0.9999
  12.100   1.3742   0.02673   0.02025  -0.0166   0.0138   0.9999
  12.000   1.3728   0.02618   0.01965  -0.0177   0.0144   0.9999
  11.900   1.3730   0.02558   0.01904  -0.0189   0.0149   0.9999
  11.800   1.3716   0.02509   0.01851  -0.0202   0.0156   0.9999
  11.700   1.3696   0.02453   0.01793  -0.0212   0.0163   0.9999
  11.600   1.3656   0.02408   0.01744  -0.0220   0.0173   0.9999
  11.500   1.3622   0.02356   0.01692  -0.0229   0.0182   0.9999
  11.400   1.3579   0.02309   0.01642  -0.0237   0.0194   0.9999
  11.300   1.3528   0.02265   0.01596  -0.0244   0.0208   0.9999
  11.200   1.3479   0.02219   0.01549  -0.0250   0.0223   0.9999
  11.100   1.3423   0.02175   0.01504  -0.0257   0.0239   0.9999
  11.000   1.3364   0.02134   0.01462  -0.0262   0.0260   0.9999
  10.900   1.3301   0.02092   0.01420  -0.0268   0.0282   0.9999
  10.800   1.3237   0.02051   0.01378  -0.0273   0.0309   0.9999
  10.700   1.3171   0.02011   0.01339  -0.0278   0.0339   0.9999
  10.600   1.3103   0.01971   0.01300  -0.0282   0.0374   0.9999
  10.500   1.3031   0.01934   0.01263  -0.0286   0.0415   0.9999
  10.400   1.2960   0.01894   0.01226  -0.0290   0.0458   0.9999
  10.300   1.2885   0.01858   0.01191  -0.0294   0.0505   0.9999
  10.200   1.2807   0.01823   0.01158  -0.0297   0.0555   0.9999
  10.100   1.2729   0.01788   0.01126  -0.0301   0.0608   0.9999
  10.000   1.2647   0.01756   0.01095  -0.0303   0.0663   0.9999
   9.900   1.2565   0.01723   0.01065  -0.0306   0.0722   0.9999
   9.800   1.2481   0.01692   0.01036  -0.0309   0.0783   0.9999
   9.700   1.2395   0.01662   0.01008  -0.0311   0.0845   0.9999
   9.600   1.2309   0.01631   0.00981  -0.0313   0.0913   0.9999
   9.500   1.2221   0.01602   0.00955  -0.0315   0.0985   0.9999
   9.400   1.2132   0.01573   0.00929  -0.0317   0.1060   0.9999
   9.300   1.2042   0.01545   0.00905  -0.0318   0.1139   0.9999
   9.200   1.1951   0.01519   0.00882  -0.0320   0.1219   0.9999
   9.100   1.1858   0.01493   0.00859  -0.0321   0.1295   0.9999
   9.000   1.1763   0.01469   0.00838  -0.0322   0.1368   0.9999
   8.900   1.1667   0.01446   0.00817  -0.0323   0.1441   0.9999
   8.800   1.1569   0.01424   0.00798  -0.0324   0.1510   0.9999
   8.700   1.1471   0.01404   0.00779  -0.0325   0.1577   0.9999
   8.600   1.1371   0.01384   0.00761  -0.0325   0.1643   0.9999
   8.500   1.1271   0.01365   0.00743  -0.0326   0.1707   0.9999
   8.400   1.1170   0.01347   0.00726  -0.0326   0.1772   0.9999
   8.300   1.1068   0.01329   0.00710  -0.0327   0.1836   0.9999
   8.200   1.0966   0.01312   0.00694  -0.0327   0.1899   0.9999
   8.100   1.0863   0.01295   0.00679  -0.0327   0.1970   0.9999
   8.000   1.0760   0.01278   0.00663  -0.0328   0.2041   0.9999
   7.900   1.0657   0.01261   0.00649  -0.0328   0.2115   0.9999
   7.700   1.0448   0.01230   0.00621  -0.0328   0.2255   0.9999
   7.600   1.0342   0.01216   0.00608  -0.0328   0.2319   0.9999
   7.500   1.0236   0.01202   0.00595  -0.0328   0.2377   0.9999
   7.400   1.0130   0.01188   0.00582  -0.0327   0.2434   0.9999
   7.300   1.0022   0.01175   0.00570  -0.0327   0.2490   0.9999
   7.200   0.9915   0.01163   0.00558  -0.0327   0.2546   0.9999
   7.100   0.9807   0.01151   0.00546  -0.0327   0.2602   0.9999
   7.000   0.9699   0.01138   0.00535  -0.0327   0.2656   0.9999
   6.900   0.9591   0.01126   0.00524  -0.0326   0.2712   0.9999
   6.800   0.9482   0.01115   0.00513  -0.0326   0.2769   0.9999
   6.700   0.9373   0.01104   0.00502  -0.0325   0.2828   0.9999
   6.600   0.9264   0.01092   0.00492  -0.0325   0.2883   0.9999
   6.500   0.9155   0.01081   0.00482  -0.0325   0.2939   0.9999
   6.400   0.9045   0.01070   0.00472  -0.0324   0.2996   0.9999
   6.300   0.8936   0.01060   0.00462  -0.0324   0.3052   0.9999
   6.200   0.8825   0.01050   0.00453  -0.0323   0.3109   0.9999
   6.100   0.8715   0.01040   0.00444  -0.0323   0.3163   0.9999
   6.000   0.8605   0.01030   0.00435  -0.0322   0.3216   0.9999
   5.900   0.8494   0.01020   0.00426  -0.0322   0.3271   0.9999
   5.800   0.8384   0.01011   0.00418  -0.0321   0.3324   0.9999
   5.700   0.8272   0.01002   0.00409  -0.0321   0.3377   0.9999
   5.600   0.8161   0.00993   0.00401  -0.0320   0.3433   0.9999
   5.500   0.8050   0.00984   0.00394  -0.0319   0.3486   0.9999
   5.400   0.7939   0.00975   0.00386  -0.0319   0.3539   0.9999
   5.300   0.7827   0.00966   0.00378  -0.0318   0.3592   0.9999
   5.200   0.7715   0.00958   0.00371  -0.0318   0.3645   0.9999
   5.100   0.7604   0.00950   0.00364  -0.0317   0.3701   0.9999
   5.000   0.7492   0.00942   0.00357  -0.0316   0.3755   0.9999
   4.900   0.7380   0.00934   0.00350  -0.0316   0.3809   0.9999
   4.800   0.7268   0.00926   0.00344  -0.0315   0.3861   0.9999
   4.700   0.7155   0.00918   0.00338  -0.0314   0.3915   0.9999
   4.600   0.7043   0.00911   0.00331  -0.0314   0.3967   0.9999
   4.500   0.6931   0.00904   0.00325  -0.0313   0.4020   0.9999
   4.400   0.6818   0.00896   0.00320  -0.0313   0.4073   0.9999
   4.300   0.6706   0.00890   0.00314  -0.0312   0.4127   0.9999
   4.200   0.6593   0.00883   0.00309  -0.0311   0.4181   0.9999
   4.100   0.6481   0.00876   0.00304  -0.0311   0.4234   0.9999
   4.000   0.6368   0.00869   0.00298  -0.0310   0.4285   0.9999
   3.900   0.6256   0.00862   0.00294  -0.0310   0.4338   0.9999
   3.800   0.6143   0.00856   0.00289  -0.0309   0.4390   0.9999
   3.700   0.6031   0.00850   0.00284  -0.0308   0.4443   0.9999
   3.600   0.5918   0.00844   0.00280  -0.0308   0.4497   0.9999
   3.500   0.5805   0.00838   0.00276  -0.0307   0.4550   0.9999
   3.300   0.5580   0.00826   0.00268  -0.0306   0.4656   0.9999
   3.200   0.5468   0.00820   0.00264  -0.0306   0.4708   0.9999
   3.100   0.5355   0.00815   0.00261  -0.0305   0.4760   0.9999
   3.000   0.5243   0.00809   0.00257  -0.0305   0.4813   0.9999
   2.900   0.5131   0.00804   0.00254  -0.0305   0.4866   0.9999
   2.800   0.5019   0.00799   0.00251  -0.0304   0.4919   0.9999
   2.700   0.4907   0.00794   0.00248  -0.0304   0.4973   0.9999
   2.600   0.4794   0.00789   0.00246  -0.0304   0.5027   0.9999
   2.500   0.4683   0.00784   0.00243  -0.0304   0.5079   0.9999
   2.400   0.4571   0.00779   0.00241  -0.0303   0.5131   0.9999
   2.300   0.4460   0.00774   0.00239  -0.0303   0.5184   0.9999
   2.200   0.4349   0.00770   0.00237  -0.0303   0.5236   0.9999
   2.100   0.4238   0.00766   0.00235  -0.0303   0.5289   0.9999
   2.000   0.4127   0.00761   0.00234  -0.0303   0.5341   0.9999
   1.900   0.4017   0.00757   0.00232  -0.0303   0.5394   0.9999
   1.800   0.3907   0.00754   0.00231  -0.0303   0.5448   0.9999
   1.700   0.3797   0.00750   0.00230  -0.0304   0.5501   0.9999
   1.600   0.3687   0.00746   0.00230  -0.0304   0.5553   0.9999
   1.500   0.3578   0.00742   0.00229  -0.0304   0.5606   0.9999
   1.400   0.3469   0.00739   0.00229  -0.0305   0.5657   0.9999
   1.300   0.3360   0.00736   0.00229  -0.0305   0.5709   0.9999
   1.200   0.3252   0.00733   0.00229  -0.0306   0.5762   0.9999
   1.100   0.3144   0.00730   0.00229  -0.0307   0.5816   0.9999
   1.000   0.3036   0.00727   0.00230  -0.0307   0.5867   0.9999
   0.900   0.2929   0.00725   0.00231  -0.0308   0.5921   0.9999
   0.800   0.2822   0.00723   0.00232  -0.0309   0.5973   0.9999
   0.700   0.2715   0.00721   0.00234  -0.0310   0.6025   0.9999
   0.600   0.2608   0.00719   0.00236  -0.0310   0.6076   0.9999
   0.500   0.2501   0.00717   0.00238  -0.0311   0.6129   0.9999
   0.400   0.2385   0.00715   0.00240  -0.0310   0.6182   0.9995
   0.300   0.2199   0.00710   0.00238  -0.0293   0.6240   0.9960
   0.200   0.2018   0.00704   0.00237  -0.0278   0.6299   0.9908
   0.100   0.1848   0.00699   0.00235  -0.0265   0.6355   0.9820
  -0.000   0.1680   0.00695   0.00235  -0.0253   0.6409   0.9687
  -0.100   0.1502   0.00693   0.00235  -0.0239   0.6465   0.9493
  -0.200   0.1337   0.00694   0.00237  -0.0229   0.6519   0.9244
  -0.300   0.1219   0.00699   0.00239  -0.0230   0.6572   0.8939
  -0.400   0.1123   0.00707   0.00240  -0.0236   0.6622   0.8637
  -0.500   0.1026   0.00715   0.00241  -0.0241   0.6671   0.8359
  -0.600   0.0925   0.00723   0.00242  -0.0244   0.6722   0.8094
  -0.700   0.0822   0.00730   0.00243  -0.0247   0.6772   0.7838
  -0.800   0.0716   0.00738   0.00244  -0.0249   0.6823   0.7602
  -0.900   0.0608   0.00745   0.00245  -0.0251   0.6874   0.7374
  -1.000   0.0499   0.00751   0.00246  -0.0252   0.6924   0.7159
  -1.100   0.0389   0.00758   0.00247  -0.0253   0.6974   0.6948
  -1.200   0.0279   0.00764   0.00249  -0.0254   0.7025   0.6749
  -1.300   0.0167   0.00770   0.00251  -0.0254   0.7075   0.6554
  -1.400   0.0055   0.00776   0.00253  -0.0254   0.7126   0.6362
  -1.500  -0.0057   0.00782   0.00255  -0.0254   0.7176   0.6169
  -1.600  -0.0169   0.00788   0.00257  -0.0255   0.7227   0.5984
  -1.700  -0.0282   0.00794   0.00259  -0.0254   0.7277   0.5795
  -1.800  -0.0394   0.00801   0.00262  -0.0254   0.7328   0.5601
  -1.900  -0.0507   0.00807   0.00264  -0.0254   0.7378   0.5406
  -2.000  -0.0620   0.00814   0.00267  -0.0254   0.7429   0.5206
  -2.100  -0.0733   0.00821   0.00270  -0.0254   0.7480   0.5018
  -2.200  -0.0846   0.00827   0.00273  -0.0254   0.7531   0.4845
  -2.300  -0.0960   0.00834   0.00277  -0.0253   0.7583   0.4674
  -2.400  -0.1073   0.00841   0.00280  -0.0253   0.7635   0.4501
  -2.500  -0.1186   0.00847   0.00284  -0.0253   0.7685   0.4330
  -2.600  -0.1299   0.00854   0.00289  -0.0252   0.7737   0.4163
  -2.700  -0.1412   0.00861   0.00293  -0.0252   0.7788   0.3990
  -2.800  -0.1524   0.00869   0.00298  -0.0252   0.7840   0.3808
  -2.900  -0.1636   0.00878   0.00302  -0.0252   0.7892   0.3616
  -3.000  -0.1748   0.00887   0.00307  -0.0251   0.7946   0.3415
  -3.100  -0.1859   0.00898   0.00313  -0.0251   0.7999   0.3189
  -3.200  -0.1970   0.00909   0.00318  -0.0251   0.8054   0.2977
  -3.300  -0.2081   0.00920   0.00324  -0.0251   0.8110   0.2776
  -3.500  -0.2303   0.00939   0.00337  -0.0251   0.8221   0.2438
  -3.600  -0.2414   0.00949   0.00344  -0.0251   0.8277   0.2281
  -3.700  -0.2524   0.00959   0.00352  -0.0251   0.8335   0.2125
  -3.800  -0.2633   0.00970   0.00359  -0.0251   0.8395   0.1970
  -3.900  -0.2742   0.00981   0.00367  -0.0251   0.8454   0.1820
  -4.000  -0.2851   0.00991   0.00376  -0.0252   0.8514   0.1677
  -4.100  -0.2958   0.01003   0.00385  -0.0253   0.8577   0.1528
  -4.200  -0.3065   0.01015   0.00394  -0.0253   0.8641   0.1385
  -4.300  -0.3171   0.01028   0.00403  -0.0255   0.8705   0.1244
  -4.400  -0.3276   0.01041   0.00413  -0.0256   0.8774   0.1106
  -4.500  -0.3379   0.01054   0.00423  -0.0258   0.8843   0.0980
  -4.600  -0.3482   0.01067   0.00434  -0.0260   0.8915   0.0859
  -4.700  -0.3582   0.01081   0.00445  -0.0262   0.8988   0.0741
  -4.800  -0.3681   0.01097   0.00458  -0.0265   0.9067   0.0632
  -4.900  -0.3778   0.01114   0.00473  -0.0269   0.9146   0.0533
  -5.000  -0.3873   0.01131   0.00488  -0.0273   0.9230   0.0458
  -5.100  -0.3968   0.01146   0.00503  -0.0277   0.9319   0.0401
  -5.200  -0.4066   0.01162   0.00518  -0.0281   0.9410   0.0361
  -5.300  -0.4168   0.01179   0.00535  -0.0283   0.9504   0.0326
  -5.400  -0.4280   0.01197   0.00554  -0.0284   0.9595   0.0296
  -5.500  -0.4401   0.01218   0.00574  -0.0282   0.9680   0.0271
  -5.600  -0.4531   0.01241   0.00597  -0.0277   0.9757   0.0251
  -5.700  -0.4666   0.01267   0.00623  -0.0272   0.9824   0.0233
  -5.800  -0.4807   0.01290   0.00648  -0.0265   0.9886   0.0218
  -5.900  -0.4951   0.01317   0.00676  -0.0257   0.9935   0.0205
  -6.000  -0.5094   0.01348   0.00705  -0.0249   0.9980   0.0196
  -6.100  -0.5218   0.01370   0.00731  -0.0245   1.0001   0.0187
  -6.200  -0.5320   0.01394   0.00754  -0.0246   1.0001   0.0182
  -6.300  -0.5422   0.01423   0.00783  -0.0247   1.0001   0.0176
  -6.400  -0.5527   0.01447   0.00809  -0.0248   1.0001   0.0171
  -6.500  -0.5629   0.01476   0.00836  -0.0248   1.0001   0.0165
  -6.600  -0.5734   0.01506   0.00868  -0.0249   1.0001   0.0160
  -6.700  -0.5838   0.01534   0.00899  -0.0249   1.0001   0.0157
  -6.800  -0.5943   0.01561   0.00926  -0.0250   1.0001   0.0153
  -6.900  -0.6043   0.01596   0.00957  -0.0250   1.0001   0.0150
  -7.000  -0.6147   0.01630   0.00997  -0.0251   1.0001   0.0147
  -7.100  -0.6251   0.01663   0.01035  -0.0252   1.0001   0.0144
  -7.200  -0.6354   0.01697   0.01071  -0.0253   1.0001   0.0141
  -7.300  -0.6457   0.01729   0.01102  -0.0254   1.0001   0.0139
  -7.400  -0.6558   0.01763   0.01134  -0.0254   1.0001   0.0136
  -7.500  -0.6659   0.01804   0.01182  -0.0255   1.0001   0.0133
  -7.600  -0.6760   0.01847   0.01232  -0.0257   1.0001   0.0132
  -7.700  -0.6862   0.01886   0.01276  -0.0258   1.0001   0.0129
  -7.800  -0.6961   0.01928   0.01321  -0.0259   1.0001   0.0127
  -7.900  -0.7061   0.01968   0.01364  -0.0260   1.0001   0.0126
  -8.000  -0.7161   0.02006   0.01400  -0.0261   1.0001   0.0124
  -8.100  -0.7257   0.02053   0.01443  -0.0261   1.0001   0.0123
  -8.200  -0.7353   0.02110   0.01513  -0.0263   1.0001   0.0122
  -8.300  -0.7446   0.02175   0.01594  -0.0266   1.0001   0.0120
  -8.400  -0.7538   0.02238   0.01668  -0.0268   1.0001   0.0119
  -8.500  -0.7629   0.02299   0.01740  -0.0270   1.0001   0.0117
  -8.600  -0.7717   0.02367   0.01818  -0.0273   1.0001   0.0116
  -8.700  -0.7806   0.02429   0.01887  -0.0275   1.0001   0.0115
  -8.800  -0.7892   0.02497   0.01964  -0.0277   1.0001   0.0114
  -8.900  -0.7978   0.02558   0.02031  -0.0279   1.0001   0.0113
  -9.000  -0.8054   0.02650   0.02136  -0.0282   1.0001   0.0113
  -9.100  -0.8132   0.02729   0.02224  -0.0285   1.0001   0.0112
  -9.200  -0.8220   0.02777   0.02272  -0.0286   1.0001   0.0111
  -9.300  -0.8317   0.02817   0.02300  -0.0285   1.0001   0.0110
  -9.400  -0.8382   0.02920   0.02417  -0.0289   1.0001   0.0110
  -9.500  -0.8427   0.03054   0.02575  -0.0295   1.0001   0.0110
  -9.600  -0.8467   0.03188   0.02730  -0.0300   1.0001   0.0110
  -9.700  -0.8522   0.03294   0.02846  -0.0304   1.0001   0.0110
  -9.800  -0.8548   0.03442   0.03013  -0.0309   1.0001   0.0110
  -9.900  -0.8561   0.03602   0.03194  -0.0315   1.0001   0.0110
 -10.000  -0.8592   0.03726   0.03329  -0.0319   1.0001   0.0110
