  
       XFOIL         Version 6.99
  
 Calculated polar for: s1075                                           
  
 1 1 Reynolds number fixed          Mach number fixed         
  
 xtrf =   1.000 (top)        1.000 (bottom)  
 Mach =   0.000     Re =     0.030 e 6     Ncrit =   9.000
  
   alpha    CL        CD       CDp       CM     Top_Xtr  Bot_Xtr
  ------ -------- --------- --------- -------- -------- --------
  20.000   0.9828   0.26447   0.25525  -0.1096   0.2149   0.9999
  19.900   0.9785   0.26287   0.25363  -0.1091   0.2175   0.9999
  19.800   0.9762   0.26194   0.25271  -0.1081   0.2194   0.9999
  19.700   0.9718   0.26033   0.25109  -0.1075   0.2221   0.9999
  19.600   0.9692   0.25932   0.25008  -0.1066   0.2241   0.9999
  19.500   0.9652   0.25783   0.24857  -0.1059   0.2268   0.9999
  19.400   0.9621   0.25661   0.24736  -0.1051   0.2289   0.9999
  19.300   0.9588   0.25540   0.24614  -0.1044   0.2317   0.9999
  19.200   0.9549   0.25383   0.24456  -0.1037   0.2340   0.9999
  19.100   0.9527   0.25305   0.24379  -0.1028   0.2366   0.9999
  19.000   0.9478   0.25113   0.24185  -0.1023   0.2391   0.9999
  18.900   0.9470   0.25077   0.24150  -0.1012   0.2415   0.9999
  18.800   0.9411   0.24856   0.23927  -0.1008   0.2445   0.9999
  18.700   0.9391   0.24767   0.23839  -0.0999   0.2468   0.9999
  18.600   0.9351   0.24620   0.23690  -0.0993   0.2499   0.9999
  18.500   0.9311   0.24461   0.23530  -0.0987   0.2524   0.9999
  18.400   0.9300   0.24410   0.23480  -0.0977   0.2552   0.9999
  18.300   0.9243   0.24196   0.23265  -0.0973   0.2583   0.9999
  18.200   0.9218   0.24086   0.23154  -0.0965   0.2609   0.9999
  18.100   0.9190   0.23978   0.23045  -0.0958   0.2640   0.9999
  18.000   0.9141   0.23789   0.22855  -0.0953   0.2671   0.9999
  17.900   0.9122   0.23696   0.22763  -0.0944   0.2698   0.9999
  17.800   0.9090   0.23570   0.22636  -0.0938   0.2732   0.9999
  17.700   0.9041   0.23385   0.22449  -0.0933   0.2764   0.9999
  17.600   0.9017   0.23275   0.22339  -0.0926   0.2793   0.9999
  17.500   0.8995   0.23179   0.22243  -0.0918   0.2826   0.9999
  17.400   0.8944   0.22988   0.22050  -0.0914   0.2862   0.9999
  17.300   0.8909   0.22844   0.21905  -0.0908   0.2893   0.9999
  17.200   0.8899   0.22775   0.21837  -0.0900   0.2924   0.9999
  17.100   0.8857   0.22616   0.21676  -0.0894   0.2963   0.9999
  17.000   0.8811   0.22438   0.21496  -0.0890   0.3000   0.9999
  16.900   0.8776   0.22293   0.21350  -0.0884   0.3034   0.9999
  16.800   0.8757   0.22192   0.21248  -0.0877   0.3068   0.9999
  16.700   0.8736   0.22092   0.21147  -0.0870   0.3105   0.9999
  16.600   0.8688   0.21910   0.20964  -0.0866   0.3146   0.9999
  16.500   0.8646   0.21746   0.20799  -0.0861   0.3185   0.9999
  16.400   0.8610   0.21598   0.20649  -0.0856   0.3223   0.9999
  16.300   0.8582   0.21469   0.20519  -0.0850   0.3261   0.9999
  16.200   0.8560   0.21358   0.20408  -0.0844   0.3299   0.9999
  16.100   0.8545   0.21267   0.20315  -0.0838   0.3339   0.9999
  16.000   0.8503   0.21102   0.20148  -0.0834   0.3383   0.9999
  15.900   0.8462   0.20943   0.19987  -0.0829   0.3427   0.9999
  15.800   0.8423   0.20785   0.19827  -0.0824   0.3470   0.9999
  15.700   0.8386   0.20634   0.19675  -0.0820   0.3514   0.9999
  15.600   0.8351   0.20486   0.19525  -0.0815   0.3559   0.9999
  15.500   0.8316   0.20340   0.19377  -0.0811   0.3603   0.9999
  15.400   0.8283   0.20195   0.19230  -0.0806   0.3649   0.9999
  15.300   0.8249   0.20053   0.19086  -0.0802   0.3695   0.9999
  15.200   0.8217   0.19910   0.18941  -0.0797   0.3741   0.9999
  15.100   0.8184   0.19769   0.18798  -0.0793   0.3789   0.9999
  15.000   0.8152   0.19628   0.18655  -0.0789   0.3837   0.9999
  14.900   0.8121   0.19488   0.18513  -0.0785   0.3885   0.9999
  14.800   0.8090   0.19351   0.18374  -0.0781   0.3934   0.9999
  14.700   0.8060   0.19214   0.18234  -0.0777   0.3983   0.9999
  14.600   0.8032   0.19080   0.18098  -0.0773   0.4032   0.9999
  14.500   0.8005   0.18950   0.17966  -0.0769   0.4081   0.9999
  14.400   0.7979   0.18821   0.17834  -0.0765   0.4131   0.9999
  14.300   0.7955   0.18693   0.17705  -0.0762   0.4180   0.9999
  14.200   0.7911   0.18525   0.17534  -0.0758   0.4232   0.9999
  14.100   0.7864   0.18354   0.17359  -0.0755   0.4286   0.9999
  14.000   0.7823   0.18195   0.17196  -0.0751   0.4340   0.9999
  13.900   0.7788   0.18049   0.17048  -0.0748   0.4395   0.9999
  13.800   0.7759   0.17915   0.16910  -0.0745   0.4449   0.9999
  13.700   0.7736   0.17791   0.16784  -0.0742   0.4502   0.9999
  13.600   0.7717   0.17673   0.16664  -0.0740   0.4554   0.9999
  13.500   0.7682   0.17522   0.16510  -0.0736   0.4608   0.9999
  13.400   0.7626   0.17339   0.16322  -0.0733   0.4666   0.9999
  13.300   0.7588   0.17189   0.16168  -0.0730   0.4724   0.9999
  13.200   0.7562   0.17060   0.16036  -0.0728   0.4781   0.9999
  13.100   0.7547   0.16948   0.15922  -0.0726   0.4836   0.9999
  13.000   0.7509   0.16794   0.15765  -0.0723   0.4891   0.9999
  12.900   0.7453   0.16615   0.15581  -0.0720   0.4953   0.9999
  12.800   0.7422   0.16478   0.15441  -0.0717   0.5013   0.9999
  12.700   0.7407   0.16366   0.15326  -0.0716   0.5070   0.9999
  12.600   0.7370   0.16216   0.15172  -0.0714   0.5128   0.9999
  12.500   0.7314   0.16039   0.14991  -0.0710   0.5191   0.9999
  12.400   0.7288   0.15911   0.14859  -0.0709   0.5252   0.9999
  12.300   0.7282   0.15811   0.14757  -0.0709   0.5310   0.9999
  12.200   0.7212   0.15614   0.14554  -0.0704   0.5374   0.9999
  12.100   0.7178   0.15473   0.14410  -0.0702   0.5438   0.9999
  12.000   0.7173   0.15375   0.14309  -0.0703   0.5498   0.9999
  11.900   0.7104   0.15182   0.14111  -0.0698   0.5563   0.9999
  11.800   0.7071   0.15046   0.13971  -0.0697   0.5629   0.9999
  11.700   0.7064   0.14942   0.13864  -0.0698   0.5689   0.9999
  11.600   0.6990   0.14747   0.13663  -0.0693   0.5758   0.9999
  11.500   0.6972   0.14631   0.13544  -0.0693   0.5824   0.9999
  11.400   0.6927   0.14476   0.13384  -0.0691   0.5888   0.9999
  11.300   0.6881   0.14324   0.13227  -0.0688   0.5958   0.9999
  11.200   0.6870   0.14216   0.13116  -0.0689   0.6021   0.9999
  11.100   0.6798   0.14030   0.12925  -0.0685   0.6092   0.9999
  11.000   0.6792   0.13930   0.12821  -0.0687   0.6159   0.9999
  10.900   0.6719   0.13745   0.12630  -0.0682   0.6229   0.9999
  10.800   0.6703   0.13633   0.12514  -0.0683   0.6299   0.9999
  10.700   0.6639   0.13460   0.12337  -0.0678   0.6369   0.9999
  10.600   0.6618   0.13343   0.12216  -0.0679   0.6440   0.9999
  10.500   0.6554   0.13173   0.12040  -0.0675   0.6512   0.9999
  10.400   0.6536   0.13061   0.11924  -0.0676   0.6583   0.9999
  10.300   0.6465   0.12887   0.11745  -0.0672   0.6657   0.9999
  10.200   0.6457   0.12786   0.11640  -0.0674   0.6728   0.9999
  10.100   0.6376   0.12602   0.11451  -0.0668   0.6804   0.9999
  10.000   0.6357   0.12489   0.11334  -0.0669   0.6876   0.9999
   9.900   0.6289   0.12325   0.11164  -0.0665   0.6954   0.9999
   9.800   0.6243   0.12183   0.11018  -0.0663   0.7028   0.9999
   9.700   0.6210   0.12060   0.10889  -0.0663   0.7105   0.9999
   9.600   0.6136   0.11891   0.10715  -0.0657   0.7184   0.9999
   9.500   0.6108   0.11772   0.10593  -0.0658   0.7258   0.9999
   9.400   0.6049   0.11624   0.10439  -0.0655   0.7341   0.9999
   9.300   0.5981   0.11465   0.10275  -0.0650   0.7418   0.9999
   9.200   0.5948   0.11346   0.10151  -0.0650   0.7497   0.9999
   9.100   0.5888   0.11200   0.10000  -0.0646   0.7580   0.9999
   9.000   0.5813   0.11040   0.09835  -0.0640   0.7662   0.9999
   8.900   0.5766   0.10908   0.09697  -0.0638   0.7742   0.9999
   8.800   0.5733   0.10794   0.09580  -0.0639   0.7826   0.9999
   8.700   0.5647   0.10629   0.09408  -0.0631   0.7913   0.9999
   8.600   0.5571   0.10474   0.09248  -0.0624   0.7997   0.9999
   8.500   0.5509   0.10334   0.09103  -0.0620   0.8082   0.9999
   8.400   0.5452   0.10202   0.08965  -0.0616   0.8170   0.9999
   8.300   0.5401   0.10077   0.08836  -0.0614   0.8258   0.9999
   8.200   0.5329   0.09934   0.08688  -0.0608   0.8349   0.9999
   8.100   0.5243   0.09779   0.08527  -0.0599   0.8440   0.9999
   8.000   0.5162   0.09631   0.08373  -0.0591   0.8534   0.9999
   7.900   0.5078   0.09482   0.08218  -0.0583   0.8626   0.9999
   7.800   0.4996   0.09336   0.08067  -0.0574   0.8721   0.9999
   7.700   0.4911   0.09190   0.07915  -0.0565   0.8817   0.9999
   7.600   0.4825   0.09046   0.07766  -0.0555   0.8915   0.9999
   7.500   0.4739   0.08903   0.07618  -0.0545   0.9014   0.9999
   7.400   0.4650   0.08760   0.07469  -0.0534   0.9113   0.9999
   7.300   0.4527   0.08587   0.07290  -0.0516   0.9216   0.9999
   7.200   0.4405   0.08419   0.07115  -0.0498   0.9321   0.9999
   7.100   0.4287   0.08260   0.06949  -0.0481   0.9431   0.9999
   7.000   0.4186   0.08117   0.06801  -0.0465   0.9538   0.9999
   6.900   0.4019   0.07916   0.06593  -0.0437   0.9647   0.9999
   6.800   0.3876   0.07742   0.06412  -0.0412   0.9759   0.9999
   6.700   0.3687   0.07529   0.06191  -0.0377   0.9867   0.9999
   6.600   0.3469   0.07294   0.05948  -0.0335   0.9970   0.9999
   6.500   0.3360   0.07144   0.05794  -0.0317   1.0001   0.9999
   6.400   0.3314   0.07043   0.05690  -0.0312   1.0001   0.9999
   6.300   0.3267   0.06944   0.05587  -0.0308   1.0001   0.9999
   6.200   0.3220   0.06845   0.05486  -0.0303   1.0001   0.9999
   6.100   0.3173   0.06747   0.05386  -0.0299   1.0001   0.9999
   6.000   0.5990   0.06924   0.05636  -0.0582   0.6854   0.9999
   5.900   0.5946   0.06820   0.05528  -0.0583   0.6905   0.9999
   5.800   0.5904   0.06717   0.05422  -0.0583   0.6956   0.9999
   5.700   0.5863   0.06615   0.05317  -0.0584   0.7007   0.9999
   5.600   0.5827   0.06515   0.05213  -0.0586   0.7060   0.9999
   5.500   0.5740   0.06424   0.05118  -0.0584   0.7120   0.9999
   5.400   0.5662   0.06333   0.05023  -0.0582   0.7181   0.9999
   5.300   0.5607   0.06240   0.04926  -0.0582   0.7238   0.9999
   5.200   0.5565   0.06146   0.04829  -0.0584   0.7294   0.9999
   5.100   0.5490   0.06059   0.04738  -0.0582   0.7356   0.9999
   5.000   0.5396   0.05975   0.04650  -0.0579   0.7421   0.9999
   4.900   0.5340   0.05887   0.04559  -0.0580   0.7481   0.9999
   4.800   0.5293   0.05800   0.04469  -0.0581   0.7541   0.9999
   4.700   0.5171   0.05723   0.04387  -0.0575   0.7610   0.9999
   4.600   0.5108   0.05640   0.04301  -0.0575   0.7673   0.9999
   4.500   0.5027   0.05560   0.04218  -0.0573   0.7739   0.9999
   4.400   0.4923   0.05483   0.04137  -0.0568   0.7808   0.9999
   4.300   0.4871   0.05403   0.04055  -0.0570   0.7872   0.9999
   4.200   0.4739   0.05330   0.03978  -0.0561   0.7945   0.9999
   4.100   0.4670   0.05254   0.03899  -0.0561   0.8011   0.9999
   4.000   0.4547   0.05181   0.03823  -0.0553   0.8083   0.9999
   3.900   0.4465   0.05108   0.03747  -0.0551   0.8153   0.9999
   3.800   0.4341   0.05037   0.03673  -0.0543   0.8226   0.9999
   3.700   0.4254   0.04966   0.03599  -0.0540   0.8297   0.9999
   3.600   0.4120   0.04896   0.03527  -0.0530   0.8372   0.9999
   3.500   0.4037   0.04827   0.03456  -0.0527   0.8444   0.9999
   3.400   0.3884   0.04758   0.03384  -0.0515   0.8521   0.9999
   3.300   0.3781   0.04690   0.03315  -0.0508   0.8595   0.9999
   3.200   0.3640   0.04622   0.03244  -0.0497   0.8673   0.9999
   3.100   0.3499   0.04555   0.03175  -0.0485   0.8751   0.9999
   3.000   0.3394   0.04490   0.03109  -0.0478   0.8827   0.9999
   2.900   0.3223   0.04422   0.03039  -0.0461   0.8908   0.9999
   2.800   0.3075   0.04355   0.02971  -0.0447   0.8987   0.9999
   2.700   0.2950   0.04291   0.02906  -0.0436   0.9066   0.9999
   2.600   0.2769   0.04222   0.02836  -0.0416   0.9148   0.9999
   2.500   0.2599   0.04154   0.02768  -0.0397   0.9230   0.9999
   2.400   0.2438   0.04088   0.02702  -0.0380   0.9312   0.9999
   2.300   0.2273   0.04022   0.02636  -0.0361   0.9394   0.9999
   2.200   0.2075   0.03951   0.02566  -0.0336   0.9479   0.9999
   2.100   0.1880   0.03880   0.02496  -0.0311   0.9562   0.9999
   2.000   0.1682   0.03809   0.02427  -0.0286   0.9647   0.9999
   1.900   0.1476   0.03736   0.02356  -0.0258   0.9732   0.9999
   1.800   0.1254   0.03660   0.02283  -0.0227   0.9818   0.9999
   1.700   0.1013   0.03580   0.02206  -0.0191   0.9905   0.9999
   1.600   0.0750   0.03494   0.02124  -0.0151   0.9992   0.9999
   1.500   0.0668   0.03443   0.02077  -0.0145   1.0001   0.9999
   1.400   0.0606   0.03397   0.02034  -0.0143   1.0001   0.9999
   1.300   0.0544   0.03351   0.01992  -0.0142   1.0001   0.9999
   1.200   0.0482   0.03307   0.01951  -0.0140   1.0001   0.9999
   1.100   0.0420   0.03264   0.01912  -0.0139   1.0001   0.9999
   1.000   0.0358   0.03222   0.01874  -0.0137   1.0001   0.9999
   0.900   0.0296   0.03181   0.01838  -0.0136   1.0001   0.9999
   0.800   0.0233   0.03141   0.01802  -0.0135   1.0001   0.9999
   0.700   0.0171   0.03102   0.01768  -0.0134   1.0001   0.9999
   0.600   0.0108   0.03064   0.01736  -0.0133   1.0001   0.9999
   0.500   0.0046   0.03027   0.01704  -0.0132   1.0001   0.9999
   0.400  -0.0016   0.02992   0.01674  -0.0131   1.0001   0.9999
   0.300  -0.0078   0.02957   0.01645  -0.0131   1.0001   0.9999
   0.200  -0.0140   0.02924   0.01618  -0.0131   1.0001   0.9999
   0.100  -0.0202   0.02891   0.01592  -0.0131   1.0001   0.9999
  -0.000  -0.0263   0.02860   0.01567  -0.0131   1.0001   0.9999
  -0.100  -0.0325   0.02830   0.01543  -0.0131   1.0001   0.9999
  -0.200  -0.0385   0.02800   0.01521  -0.0131   1.0001   0.9999
  -0.300  -0.0446   0.02772   0.01500  -0.0132   1.0001   0.9999
  -0.400  -0.0506   0.02745   0.01481  -0.0133   1.0001   0.9999
  -0.500  -0.0565   0.02719   0.01463  -0.0134   1.0001   0.9999
  -0.600  -0.0623   0.02694   0.01446  -0.0135   1.0001   0.9999
  -0.700  -0.0681   0.02670   0.01430  -0.0137   1.0001   0.9999
  -0.800  -0.0737   0.02647   0.01417  -0.0139   1.0001   0.9999
  -0.900  -0.0792   0.02625   0.01404  -0.0141   1.0001   0.9999
  -1.000  -0.0846   0.02605   0.01393  -0.0144   1.0001   0.9999
  -1.100  -0.0897   0.02585   0.01383  -0.0147   1.0001   0.9999
  -1.200  -0.0947   0.02567   0.01375  -0.0150   1.0001   0.9999
  -1.300  -0.0993   0.02550   0.01369  -0.0154   1.0001   0.9999
  -1.400  -0.1036   0.02534   0.01364  -0.0158   1.0001   0.9999
  -1.500  -0.1075   0.02520   0.01361  -0.0163   1.0001   0.9999
  -1.600  -0.1108   0.02508   0.01360  -0.0169   1.0001   0.9999
  -1.700  -0.1135   0.02497   0.01360  -0.0176   1.0001   0.9999
  -1.800  -0.1152   0.02489   0.01363  -0.0183   1.0001   0.9999
  -1.900  -0.1157   0.02482   0.01368  -0.0193   1.0001   0.9999
  -2.000  -0.1146   0.02479   0.01376  -0.0204   1.0001   0.9999
  -2.100  -0.1116   0.02480   0.01386  -0.0218   1.0001   0.9999
  -2.200  -0.1065   0.02485   0.01399  -0.0234   1.0001   0.9999
  -2.300  -0.0989   0.02495   0.01414  -0.0253   1.0001   0.9999
  -2.400  -0.0892   0.02510   0.01431  -0.0274   1.0001   0.9999
  -2.500  -0.0787   0.02531   0.01451  -0.0295   1.0001   0.9999
  -2.600  -0.0686   0.02556   0.01475  -0.0315   1.0001   0.9999
  -2.700  -0.0600   0.02586   0.01503  -0.0330   1.0001   0.9999
  -2.800  -0.0536   0.02622   0.01536  -0.0342   1.0001   0.9999
  -2.900  -0.0492   0.02663   0.01577  -0.0349   1.0001   0.9999
  -3.000  -0.0464   0.02709   0.01623  -0.0352   1.0001   0.9999
  -3.100  -0.0448   0.02761   0.01675  -0.0353   1.0001   0.9999
  -3.200  -0.3403   0.02794   0.01916   0.0099   1.0001   0.7984
  -3.300  -0.3483   0.02812   0.01932   0.0074   1.0001   0.7611
  -3.400  -0.3530   0.02837   0.01950   0.0046   1.0001   0.7287
  -3.500  -0.3567   0.02866   0.01972   0.0019   1.0001   0.6982
  -3.600  -0.3602   0.02897   0.01996  -0.0007   1.0001   0.6689
  -3.700  -0.3639   0.02930   0.02021  -0.0033   1.0001   0.6405
  -3.800  -0.3678   0.02965   0.02047  -0.0057   1.0001   0.6123
  -3.900  -0.3720   0.03001   0.02073  -0.0080   1.0001   0.5852
  -4.000  -0.3767   0.03042   0.02106  -0.0101   1.0001   0.5575
  -4.100  -0.3816   0.03085   0.02140  -0.0121   1.0001   0.5305
  -4.200  -0.3869   0.03129   0.02174  -0.0140   1.0001   0.5043
  -4.300  -0.3926   0.03177   0.02212  -0.0157   1.0001   0.4785
  -4.400  -0.3986   0.03230   0.02257  -0.0173   1.0001   0.4534
  -4.500  -0.4047   0.03286   0.02305  -0.0188   1.0001   0.4294
  -4.600  -0.4111   0.03345   0.02356  -0.0202   1.0001   0.4065
  -4.700  -0.4177   0.03409   0.02412  -0.0216   1.0001   0.3846
  -4.800  -0.4250   0.03479   0.02476  -0.0226   1.0001   0.3633
  -4.900  -0.4325   0.03555   0.02548  -0.0237   1.0001   0.3432
  -5.000  -0.4401   0.03633   0.02622  -0.0246   1.0001   0.3248
  -5.100  -0.4478   0.03712   0.02695  -0.0255   1.0001   0.3080
  -5.200  -0.4556   0.03804   0.02787  -0.0262   1.0001   0.2926
  -5.300  -0.4636   0.03897   0.02878  -0.0269   1.0001   0.2789
  -5.400  -0.4715   0.04008   0.03000  -0.0274   1.0001   0.2668
  -5.500  -0.4797   0.04112   0.03105  -0.0280   1.0001   0.2561
  -5.600  -0.4877   0.04231   0.03233  -0.0283   1.0001   0.2468
  -5.700  -0.4954   0.04366   0.03381  -0.0285   1.0001   0.2390
  -5.800  -0.5035   0.04483   0.03500  -0.0290   1.0001   0.2317
  -5.900  -0.5108   0.04637   0.03673  -0.0290   1.0001   0.2262
  -6.000  -0.5179   0.04792   0.03841  -0.0290   1.0001   0.2213
  -6.100  -0.5249   0.04947   0.04009  -0.0291   1.0001   0.2170
  -6.200  -0.5321   0.05097   0.04167  -0.0292   1.0001   0.2131
  -6.300  -0.5367   0.05311   0.04406  -0.0286   1.0001   0.2114
  -6.400  -0.5435   0.05464   0.04565  -0.0288   1.0001   0.2084
  -6.500  -0.5471   0.05687   0.04809  -0.0281   1.0001   0.2077
  -6.600  -0.5504   0.05907   0.05045  -0.0274   1.0001   0.2073
  -6.700  -0.5534   0.06128   0.05279  -0.0266   1.0001   0.2072
  -6.800  -0.5559   0.06351   0.05513  -0.0259   1.0001   0.2075
  -6.900  -0.5584   0.06572   0.05743  -0.0251   1.0001   0.2081
  -7.100  -0.5579   0.07086   0.06275  -0.0224   1.0001   0.2126
  -7.200  -0.5546   0.07376   0.06572  -0.0204   1.0001   0.2168
  -7.400  -0.5487   0.07939   0.07143  -0.0163   1.0001   0.2264
  -7.500  -0.5469   0.08212   0.07416  -0.0143   1.0001   0.2317
  -7.600  -0.5384   0.08553   0.07757  -0.0106   1.0001   0.2422
  -7.700  -0.5309   0.08884   0.08084  -0.0070   1.0001   0.2545
  -7.800  -0.5266   0.09211   0.08408  -0.0035   1.0001   0.2697
  -8.000  -0.4134   0.10184   0.09333   0.0276   1.0001   0.5817
  -8.100  -0.4184   0.10359   0.09508   0.0278   1.0001   0.5749
  -8.200  -0.4203   0.10497   0.09645   0.0275   1.0001   0.5673
  -8.300  -0.4242   0.10660   0.09807   0.0275   1.0001   0.5600
  -8.400  -0.4297   0.10835   0.09983   0.0276   1.0001   0.5517
  -8.500  -0.4303   0.10958   0.10103   0.0272   1.0001   0.5440
  -8.600  -0.4352   0.11130   0.10275   0.0273   1.0001   0.5361
  -8.700  -0.4398   0.11295   0.10441   0.0272   1.0001   0.5279
  -8.800  -0.4408   0.11421   0.10564   0.0269   1.0001   0.5202
  -8.900  -0.4461   0.11598   0.10741   0.0269   1.0001   0.5123
  -9.000  -0.4494   0.11749   0.10891   0.0268   1.0001   0.5042
  -9.100  -0.4512   0.11884   0.11025   0.0266   1.0001   0.4969
  -9.200  -0.4586   0.12084   0.11225   0.0268   1.0001   0.4890
  -9.300  -0.4575   0.12183   0.11322   0.0264   1.0001   0.4819
  -9.400  -0.4641   0.12375   0.11514   0.0265   1.0001   0.4743
  -9.500  -0.4640   0.12485   0.11622   0.0263   1.0001   0.4673
  -9.600  -0.4709   0.12681   0.11818   0.0264   1.0001   0.4601
  -9.700  -0.4703   0.12785   0.11920   0.0262   1.0001   0.4534
  -9.800  -0.4761   0.12967   0.12102   0.0262   1.0001   0.4463
  -9.900  -0.4774   0.13096   0.12228   0.0262   1.0001   0.4400
 -10.000  -0.4796   0.13231   0.12363   0.0261   1.0001   0.4333
  25.000   1.1477   0.32343   0.31446  -0.1543   0.1342   0.9999
  24.900   1.1450   0.32263   0.31367  -0.1532   0.1350   0.9999
  24.800   1.1407   0.32075   0.31177  -0.1525   0.1364   0.9999
  24.700   1.1376   0.31975   0.31077  -0.1515   0.1378   0.9999
  24.600   1.1356   0.31951   0.31052  -0.1502   0.1389   0.9999
  24.500   1.1316   0.31770   0.30871  -0.1495   0.1399   0.9999
  24.400   1.1278   0.31628   0.30727  -0.1487   0.1414   0.9999
  24.300   1.1253   0.31568   0.30667  -0.1475   0.1428   0.9999
  24.200   1.1227   0.31487   0.30586  -0.1464   0.1437   0.9999
  24.100   1.1182   0.31294   0.30391  -0.1458   0.1451   0.9999
  24.000   1.1152   0.31203   0.30300  -0.1448   0.1466   0.9999
  23.900   1.1136   0.31193   0.30290  -0.1434   0.1476   0.9999
  23.800   1.1086   0.30964   0.30060  -0.1429   0.1491   0.9999
  23.700   1.1052   0.30851   0.29946  -0.1420   0.1507   0.9999
  23.600   1.1034   0.30825   0.29920  -0.1407   0.1519   0.9999
  23.500   1.0991   0.30637   0.29731  -0.1400   0.1531   0.9999
  23.400   1.0954   0.30502   0.29595  -0.1392   0.1548   0.9999
  23.300   1.0933   0.30466   0.29559  -0.1380   0.1561   0.9999
  23.200   1.0894   0.30295   0.29387  -0.1372   0.1573   0.9999
  23.100   1.0855   0.30156   0.29247  -0.1365   0.1591   0.9999
  23.000   1.0836   0.30121   0.29212  -0.1352   0.1605   0.9999
  22.900   1.0794   0.29946   0.29037  -0.1345   0.1618   0.9999
  22.800   1.0756   0.29809   0.28899  -0.1337   0.1636   0.9999
  22.700   1.0739   0.29781   0.28871  -0.1324   0.1650   0.9999
  22.600   1.0693   0.29586   0.28675  -0.1318   0.1664   0.9999
  22.500   1.0658   0.29467   0.28554  -0.1310   0.1683   0.9999
  22.400   1.0645   0.29454   0.28542  -0.1296   0.1696   0.9999
  22.300   1.0591   0.29221   0.28308  -0.1292   0.1713   0.9999
  22.200   1.0561   0.29131   0.28217  -0.1282   0.1732   0.9999
  22.100   1.0536   0.29041   0.28129  -0.1271   0.1744   0.9999
  22.000   1.0489   0.28859   0.27945  -0.1266   0.1763   0.9999
  21.900   1.0469   0.28812   0.27898  -0.1254   0.1781   0.9999
  21.800   1.0427   0.28637   0.27722  -0.1247   0.1796   0.9999
  21.700   1.0391   0.28516   0.27600  -0.1239   0.1817   0.9999
  21.600   1.0375   0.28476   0.27562  -0.1226   0.1830   0.9999
  21.500   1.0322   0.28259   0.27342  -0.1222   0.1851   0.9999
  21.400   1.0300   0.28202   0.27285  -0.1211   0.1869   0.9999
  21.300   1.0259   0.28031   0.27113  -0.1204   0.1885   0.9999
  21.200   1.0225   0.27917   0.26998  -0.1196   0.1908   0.9999
  21.100   1.0202   0.27835   0.26918  -0.1185   0.1923   0.9999
  21.000   1.0154   0.27651   0.26732  -0.1180   0.1945   0.9999
  20.900   1.0142   0.27630   0.26712  -0.1167   0.1962   0.9999
  20.800   1.0086   0.27401   0.26482  -0.1163   0.1983   0.9999
  20.700   1.0067   0.27343   0.26424  -0.1152   0.2004   0.9999
  20.600   1.0021   0.27161   0.26240  -0.1146   0.2023   0.9999
  20.500   0.9993   0.27069   0.26148  -0.1137   0.2046   0.9999
  20.400   0.9958   0.26927   0.26006  -0.1129   0.2063   0.9999
  20.300   0.9922   0.26802   0.25880  -0.1122   0.2087   0.9999
  20.200   0.9894   0.26693   0.25771  -0.1113   0.2105   0.9999
  20.100   0.9853   0.26543   0.25620  -0.1106   0.2131   0.9999
