  
       XFOIL         Version 6.99
  
 Calculated polar for: s1075                                           
  
 1 1 Reynolds number fixed          Mach number fixed         
  
 xtrf =   1.000 (top)        1.000 (bottom)  
 Mach =   0.000     Re =     0.050 e 6     Ncrit =   9.000
  
   alpha    CL        CD       CDp       CM     Top_Xtr  Bot_Xtr
  ------ -------- --------- --------- -------- -------- --------
  20.000   0.9862   0.25994   0.25279  -0.1063   0.1346   0.9999
  19.900   0.9812   0.25812   0.25096  -0.1059   0.1359   0.9999
  19.800   0.9778   0.25686   0.24969  -0.1051   0.1379   0.9999
  19.600   0.9710   0.25411   0.24694  -0.1034   0.1409   0.9999
  19.500   0.9690   0.25313   0.24597  -0.1023   0.1428   0.9999
  19.400   0.9658   0.25171   0.24455  -0.1014   0.1441   0.9999
  19.300   0.9614   0.25023   0.24305  -0.1009   0.1462   0.9999
  19.200   0.9612   0.24955   0.24238  -0.0993   0.1476   0.9999
  19.100   0.9550   0.24751   0.24033  -0.0992   0.1495   0.9999
  19.000   0.9531   0.24653   0.23935  -0.0981   0.1515   0.9999
  18.900   0.9494   0.24499   0.23782  -0.0974   0.1530   0.9999
  18.800   0.9458   0.24364   0.23645  -0.0967   0.1552   0.9999
  18.700   0.9446   0.24262   0.23545  -0.0954   0.1567   0.9999
  18.600   0.9390   0.24083   0.23365  -0.0952   0.1590   0.9999
  18.500   0.9390   0.24010   0.23293  -0.0937   0.1607   0.9999
  18.400   0.9327   0.23809   0.23090  -0.0936   0.1629   0.9999
  18.300   0.9320   0.23725   0.23007  -0.0923   0.1649   0.9999
  18.200   0.9266   0.23538   0.22819  -0.0920   0.1669   0.9999
  18.100   0.9252   0.23440   0.22721  -0.0909   0.1692   0.9999
  18.000   0.9205   0.23264   0.22544  -0.0904   0.1712   0.9999
  17.900   0.9189   0.23162   0.22442  -0.0894   0.1736   0.9999
  17.800   0.9143   0.22989   0.22269  -0.0889   0.1756   0.9999
  17.700   0.9129   0.22887   0.22166  -0.0878   0.1780   0.9999
  17.600   0.9080   0.22710   0.21989  -0.0874   0.1802   0.9999
  17.500   0.9072   0.22614   0.21894  -0.0863   0.1826   0.9999
  17.400   0.9018   0.22430   0.21708  -0.0860   0.1849   0.9999
  17.300   0.9019   0.22345   0.21624  -0.0847   0.1872   0.9999
  17.200   0.8958   0.22150   0.21428  -0.0846   0.1899   0.9999
  17.000   0.8902   0.21877   0.21153  -0.0831   0.1950   0.9999
  16.900   0.8885   0.21746   0.21024  -0.0822   0.1971   0.9999
  16.800   0.8854   0.21609   0.20885  -0.0815   0.2001   0.9999
  16.700   0.8813   0.21444   0.20719  -0.0810   0.2025   0.9999
  16.600   0.8813   0.21350   0.20626  -0.0799   0.2051   0.9999
  16.500   0.8754   0.21161   0.20435  -0.0797   0.2082   0.9999
  16.400   0.8744   0.21039   0.20313  -0.0788   0.2104   0.9999
  16.300   0.8712   0.20897   0.20170  -0.0782   0.2137   0.9999
  16.200   0.8667   0.20728   0.20000  -0.0778   0.2165   0.9999
  16.000   0.8622   0.20458   0.19729  -0.0764   0.2225   0.9999
  15.900   0.8584   0.20296   0.19566  -0.0759   0.2253   0.9999
  15.800   0.8600   0.20209   0.19480  -0.0747   0.2279   0.9999
  15.700   0.8541   0.20027   0.19295  -0.0745   0.2317   0.9999
  15.600   0.8500   0.19862   0.19129  -0.0741   0.2348   0.9999
  15.500   0.8498   0.19741   0.19009  -0.0732   0.2376   0.9999
  15.400   0.8474   0.19605   0.18872  -0.0727   0.2412   0.9999
  15.300   0.8425   0.19434   0.18699  -0.0724   0.2449   0.9999
  15.200   0.8395   0.19281   0.18544  -0.0719   0.2480   0.9999
  15.100   0.8405   0.19174   0.18437  -0.0709   0.2510   0.9999
  15.000   0.8370   0.19023   0.18284  -0.0705   0.2549   0.9999
  14.900   0.8324   0.18855   0.18114  -0.0702   0.2588   0.9999
  14.800   0.8289   0.18698   0.17956  -0.0698   0.2625   0.9999
  14.700   0.8272   0.18557   0.17814  -0.0692   0.2658   0.9999
  14.600   0.8288   0.18454   0.17712  -0.0684   0.2691   0.9999
  14.500   0.8243   0.18291   0.17546  -0.0681   0.2733   0.9999
  14.400   0.8202   0.18129   0.17381  -0.0678   0.2774   0.9999
  14.300   0.8165   0.17970   0.17220  -0.0675   0.2814   0.9999
  14.200   0.8137   0.17819   0.17067  -0.0671   0.2852   0.9999
  14.100   0.8120   0.17677   0.16925  -0.0666   0.2889   0.9999
  14.000   0.8127   0.17557   0.16804  -0.0659   0.2925   0.9999
  13.900   0.8108   0.17418   0.16663  -0.0655   0.2966   0.9999
  13.800   0.8072   0.17262   0.16506  -0.0652   0.3010   0.9999
  13.700   0.8035   0.17106   0.16346  -0.0650   0.3053   0.9999
  13.600   0.8002   0.16952   0.16190  -0.0647   0.3096   0.9999
  13.500   0.7971   0.16799   0.16035  -0.0644   0.3137   0.9999
  13.400   0.7945   0.16649   0.15883  -0.0640   0.3177   0.9999
  13.300   0.7925   0.16503   0.15735  -0.0637   0.3217   0.9999
  13.200   0.7915   0.16363   0.15593  -0.0633   0.3257   0.9999
  13.000   0.7905   0.16096   0.15323  -0.0625   0.3338   0.9999
  12.900   0.7872   0.15942   0.15167  -0.0623   0.3383   0.9999
  12.800   0.7839   0.15789   0.15011  -0.0621   0.3427   0.9999
  12.700   0.7809   0.15638   0.14857  -0.0618   0.3471   0.9999
  12.600   0.7778   0.15485   0.14702  -0.0616   0.3515   0.9999
  12.500   0.7751   0.15335   0.14549  -0.0614   0.3558   0.9999
  12.400   0.7725   0.15186   0.14397  -0.0611   0.3601   0.9999
  12.300   0.7703   0.15036   0.14245  -0.0609   0.3643   0.9999
  12.200   0.7684   0.14890   0.14096  -0.0607   0.3686   0.9999
  12.100   0.7668   0.14745   0.13949  -0.0604   0.3728   0.9999
  12.000   0.7665   0.14603   0.13806  -0.0602   0.3768   0.9999
  11.900   0.7673   0.14468   0.13669  -0.0600   0.3808   0.9999
  11.800   0.7662   0.14326   0.13524  -0.0598   0.3852   0.9999
  11.700   0.7633   0.14175   0.13371  -0.0596   0.3897   0.9999
  11.600   0.7608   0.14027   0.13220  -0.0595   0.3943   0.9999
  11.500   0.7581   0.13876   0.13066  -0.0594   0.3988   0.9999
  11.400   0.7552   0.13726   0.12912  -0.0592   0.4033   0.9999
  11.300   0.7526   0.13576   0.12759  -0.0591   0.4078   0.9999
  11.200   0.7499   0.13425   0.12605  -0.0590   0.4122   0.9999
  11.100   0.7474   0.13275   0.12452  -0.0588   0.4165   0.9999
  10.900   0.7505   0.12979   0.12153  -0.0584   0.4227   0.9999
  10.800   0.7472   0.12827   0.11997  -0.0583   0.4271   0.9999
  10.500   0.7512   0.12278   0.11443  -0.0568   0.4273   0.9999
  10.400   1.2151   0.04924   0.04121  -0.0177   0.2261   0.9999
  10.300   1.2093   0.04880   0.04077  -0.0185   0.2343   0.9999
  10.200   1.2082   0.04786   0.03970  -0.0195   0.2415   0.9999
  10.100   1.2002   0.04763   0.03949  -0.0202   0.2503   0.9999
  10.000   1.1918   0.04743   0.03932  -0.0209   0.2591   0.9999
   9.900   1.1833   0.04724   0.03913  -0.0216   0.2678   0.9999
   9.800   1.1749   0.04702   0.03891  -0.0223   0.2763   0.9999
   9.700   1.1679   0.04666   0.03852  -0.0230   0.2845   0.9999
   9.600   1.1646   0.04587   0.03762  -0.0238   0.2921   0.9999
   9.500   1.1540   0.04588   0.03766  -0.0244   0.3007   0.9999
   9.400   1.1438   0.04585   0.03763  -0.0250   0.3090   0.9999
   9.300   1.1355   0.04559   0.03735  -0.0257   0.3170   0.9999
   9.100   1.1194   0.04500   0.03667  -0.0271   0.3326   0.9999
   9.000   1.1100   0.04483   0.03648  -0.0277   0.3403   0.9999
   8.900   1.1058   0.04407   0.03561  -0.0284   0.3478   0.9999
   8.800   1.0929   0.04431   0.03588  -0.0290   0.3555   0.9999
   8.700   1.0856   0.04387   0.03537  -0.0296   0.3628   0.9999
   8.600   1.0766   0.04364   0.03510  -0.0302   0.3702   0.9999
   8.500   1.0671   0.04345   0.03488  -0.0308   0.3773   0.9999
   8.400   1.0600   0.04298   0.03433  -0.0314   0.3846   0.9999
   8.300   1.0494   0.04291   0.03423  -0.0320   0.3915   0.9999
   8.200   1.0423   0.04241   0.03366  -0.0325   0.3986   0.9999
   8.100   1.0319   0.04231   0.03354  -0.0331   0.4054   0.9999
   8.000   1.0239   0.04192   0.03308  -0.0337   0.4124   0.9999
   7.900   1.0147   0.04166   0.03278  -0.0342   0.4192   0.9999
   7.800   1.0050   0.04146   0.03253  -0.0348   0.4259   0.9999
   7.700   0.9978   0.04094   0.03195  -0.0353   0.4328   0.9999
   7.600   0.9868   0.04091   0.03189  -0.0359   0.4392   0.9999
   7.500   0.9812   0.04017   0.03105  -0.0363   0.4463   0.9999
   7.400   0.9693   0.04025   0.03112  -0.0369   0.4524   0.9999
   7.300   0.9605   0.03993   0.03074  -0.0374   0.4590   0.9999
   7.200   0.9526   0.03948   0.03023  -0.0379   0.4657   0.9999
   7.100   0.9418   0.03941   0.03013  -0.0385   0.4719   0.9999
   7.000   0.9350   0.03881   0.02945  -0.0389   0.4789   0.9999
   6.900   0.9245   0.03869   0.02931  -0.0395   0.4849   0.9999
   6.800   0.9145   0.03851   0.02908  -0.0400   0.4911   0.9999
   6.700   0.9077   0.03790   0.02839  -0.0404   0.4982   0.9999
   6.600   0.8967   0.03785   0.02833  -0.0409   0.5040   0.9999
   6.500   0.8871   0.03762   0.02805  -0.0414   0.5103   0.9999
   6.400   0.8798   0.03708   0.02744  -0.0418   0.5172   0.9999
   6.300   0.8690   0.03701   0.02735  -0.0424   0.5230   0.9999
   6.200   0.8595   0.03676   0.02706  -0.0429   0.5292   0.9999
   6.100   0.8518   0.03627   0.02650  -0.0433   0.5361   0.9999
   6.000   0.8411   0.03618   0.02638  -0.0438   0.5419   0.9999
   5.900   0.8316   0.03593   0.02611  -0.0443   0.5481   0.9999
   5.800   0.8237   0.03548   0.02559  -0.0447   0.5550   0.9999
   5.700   0.8132   0.03537   0.02546  -0.0452   0.5607   0.9999
   5.600   0.8035   0.03514   0.02520  -0.0457   0.5669   0.9999
   5.500   0.7956   0.03470   0.02470  -0.0461   0.5738   0.9999
   5.400   0.7850   0.03459   0.02457  -0.0466   0.5796   0.9999
   5.300   0.7754   0.03438   0.02433  -0.0471   0.5858   0.9999
   5.200   0.7673   0.03395   0.02385  -0.0475   0.5927   0.9999
   5.100   0.7568   0.03385   0.02372  -0.0480   0.5985   0.9999
   5.000   0.7471   0.03365   0.02350  -0.0485   0.6046   0.9999
   4.900   0.7389   0.03324   0.02304  -0.0489   0.6116   0.9999
   4.800   0.7285   0.03313   0.02292  -0.0495   0.6174   0.9999
   4.700   0.7187   0.03293   0.02270  -0.0500   0.6235   0.9999
   4.600   0.7105   0.03254   0.02227  -0.0503   0.6305   0.9999
   4.500   0.7001   0.03244   0.02215  -0.0509   0.6363   0.9999
   4.400   0.6903   0.03225   0.02194  -0.0514   0.6425   0.9999
   4.300   0.6819   0.03188   0.02154  -0.0518   0.6495   0.9999
   4.200   0.6716   0.03177   0.02142  -0.0523   0.6554   0.9999
   4.100   0.6618   0.03158   0.02120  -0.0528   0.6617   0.9999
   4.000   0.6533   0.03125   0.02085  -0.0532   0.6686   0.9999
   3.900   0.6429   0.03113   0.02072  -0.0538   0.6745   0.9999
   3.800   0.6334   0.03092   0.02049  -0.0542   0.6810   0.9999
   3.700   0.6245   0.03064   0.02019  -0.0547   0.6878   0.9999
   3.600   0.6142   0.03050   0.02004  -0.0552   0.6938   0.9999
   3.500   0.6051   0.03025   0.01977  -0.0556   0.7006   0.9999
   3.400   0.5955   0.03004   0.01955  -0.0561   0.7071   0.9999
   3.300   0.5853   0.02989   0.01939  -0.0566   0.7132   0.9999
   3.200   0.5770   0.02956   0.01905  -0.0570   0.7206   0.9999
   3.100   0.5663   0.02945   0.01894  -0.0575   0.7265   0.9999
   3.000   0.5562   0.02928   0.01876  -0.0580   0.7329   0.9999
   2.900   0.5474   0.02901   0.01848  -0.0584   0.7400   0.9999
   2.800   0.5366   0.02888   0.01835  -0.0588   0.7462   0.9999
   2.700   0.5273   0.02865   0.01812  -0.0592   0.7531   0.9999
   2.600   0.5171   0.02847   0.01793  -0.0596   0.7597   0.9999
   2.500   0.5064   0.02832   0.01778  -0.0600   0.7662   0.9999
   2.400   0.4974   0.02806   0.01752  -0.0604   0.7734   0.9999
   2.300   0.4858   0.02795   0.01741  -0.0607   0.7796   0.9999
   2.200   0.4763   0.02772   0.01718  -0.0610   0.7869   0.9999
   2.100   0.4649   0.02758   0.01705  -0.0612   0.7934   0.9999
   2.000   0.4537   0.02742   0.01689  -0.0614   0.8001   0.9999
   1.900   0.4432   0.02722   0.01670  -0.0617   0.8072   0.9999
   1.800   0.4308   0.02710   0.01658  -0.0617   0.8138   0.9999
   1.700   0.4206   0.02688   0.01637  -0.0619   0.8212   0.9999
   1.600   0.4068   0.02678   0.01629  -0.0617   0.8276   0.9999
   1.500   0.3964   0.02656   0.01608  -0.0618   0.8352   0.9999
   1.400   0.3813   0.02648   0.01601  -0.0613   0.8415   0.9999
   1.300   0.3691   0.02630   0.01584  -0.0611   0.8490   0.9999
   1.200   0.3536   0.02621   0.01575  -0.0605   0.8556   0.9999
   1.100   0.3391   0.02607   0.01563  -0.0599   0.8626   0.9999
   1.000   0.3235   0.02595   0.01553  -0.0591   0.8696   0.9999
   0.900   0.3066   0.02584   0.01544  -0.0581   0.8764   0.9999
   0.800   0.2906   0.02570   0.01532  -0.0571   0.8835   0.9999
   0.700   0.2714   0.02561   0.01525  -0.0556   0.8902   0.9999
   0.600   0.2547   0.02546   0.01513  -0.0544   0.8975   0.9999
   0.500   0.2332   0.02537   0.01507  -0.0523   0.9038   0.9999
   0.400   0.2143   0.02523   0.01496  -0.0507   0.9111   0.9999
   0.300   0.1904   0.02513   0.01490  -0.0481   0.9173   0.9999
   0.200   0.1686   0.02500   0.01481  -0.0458   0.9241   0.9999
   0.100   0.1478   0.02484   0.01470  -0.0436   0.9310   0.9999
  -0.000   0.1252   0.02469   0.01459  -0.0411   0.9376   0.9999
  -0.100   0.1050   0.02450   0.01447  -0.0390   0.9447   0.9999
  -0.200   0.0816   0.02432   0.01435  -0.0363   0.9511   0.9999
  -0.300   0.0608   0.02412   0.01422  -0.0340   0.9583   0.9999
  -0.400   0.0372   0.02390   0.01409  -0.0311   0.9646   0.9999
  -0.500   0.0148   0.02368   0.01395  -0.0284   0.9713   0.9999
  -0.600  -0.0087   0.02343   0.01380  -0.0255   0.9777   0.9999
  -0.700  -0.0321   0.02318   0.01365  -0.0226   0.9843   0.9999
  -0.800  -0.0564   0.02291   0.01349  -0.0194   0.9905   0.9999
  -0.900  -0.0811   0.02262   0.01333  -0.0162   0.9966   0.9999
  -1.000  -0.0982   0.02235   0.01317  -0.0142   1.0001   0.9999
  -1.100  -0.1042   0.02212   0.01302  -0.0143   1.0001   0.9999
  -1.200  -0.1099   0.02189   0.01288  -0.0144   1.0001   0.9999
  -1.300  -0.1155   0.02168   0.01276  -0.0146   1.0001   0.9999
  -1.400  -0.1207   0.02148   0.01265  -0.0148   1.0001   0.9999
  -1.500  -0.1257   0.02130   0.01257  -0.0150   1.0001   0.9999
  -1.600  -0.1302   0.02113   0.01250  -0.0154   1.0001   0.9999
  -1.700  -0.1339   0.02099   0.01246  -0.0157   1.0001   0.9999
  -1.800  -0.1367   0.02086   0.01244  -0.0163   1.0001   0.9999
  -1.900  -0.1378   0.02077   0.01246  -0.0170   1.0001   0.9999
  -2.000  -0.1359   0.02074   0.01252  -0.0180   1.0001   0.9999
  -2.100  -0.1289   0.02078   0.01264  -0.0197   1.0001   0.9999
  -2.200  -0.1144   0.02092   0.01281  -0.0223   1.0001   0.9999
  -2.300  -0.0918   0.02115   0.01301  -0.0258   1.0001   0.9999
  -2.400  -0.1222   0.02138   0.01343  -0.0203   1.0001   0.9842
  -2.500  -0.2382   0.02084   0.01350  -0.0023   1.0001   0.9160
  -2.600  -0.2711   0.02059   0.01332   0.0003   1.0001   0.8587
  -2.700  -0.2810   0.02057   0.01324  -0.0010   1.0001   0.8175
  -2.800  -0.2864   0.02063   0.01321  -0.0030   1.0001   0.7827
  -2.900  -0.2908   0.02071   0.01320  -0.0049   1.0001   0.7502
  -3.000  -0.2951   0.02081   0.01319  -0.0068   1.0001   0.7199
  -3.100  -0.2998   0.02094   0.01321  -0.0085   1.0001   0.6897
  -3.200  -0.3048   0.02107   0.01324  -0.0101   1.0001   0.6604
  -3.300  -0.3100   0.02121   0.01328  -0.0116   1.0001   0.6316
  -3.400  -0.3155   0.02137   0.01332  -0.0130   1.0001   0.6030
  -3.500  -0.3212   0.02154   0.01338  -0.0143   1.0001   0.5749
  -3.600  -0.3271   0.02172   0.01345  -0.0156   1.0001   0.5468
  -3.700  -0.3330   0.02193   0.01354  -0.0167   1.0001   0.5188
  -3.800  -0.3390   0.02215   0.01364  -0.0179   1.0001   0.4909
  -3.900  -0.3450   0.02239   0.01375  -0.0190   1.0001   0.4641
  -4.000  -0.3511   0.02266   0.01390  -0.0201   1.0001   0.4373
  -4.100  -0.3576   0.02296   0.01407  -0.0211   1.0001   0.4107
  -4.200  -0.3642   0.02329   0.01427  -0.0220   1.0001   0.3848
  -4.300  -0.3710   0.02365   0.01448  -0.0229   1.0001   0.3596
  -4.400  -0.3779   0.02405   0.01477  -0.0237   1.0001   0.3345
  -4.500  -0.3848   0.02447   0.01506  -0.0245   1.0001   0.3106
  -4.600  -0.3919   0.02492   0.01536  -0.0253   1.0001   0.2878
  -4.700  -0.3990   0.02540   0.01573  -0.0261   1.0001   0.2661
  -4.800  -0.4063   0.02591   0.01610  -0.0268   1.0001   0.2462
  -4.900  -0.4139   0.02647   0.01656  -0.0274   1.0001   0.2275
  -5.000  -0.4219   0.02709   0.01713  -0.0280   1.0001   0.2107
  -5.100  -0.4301   0.02774   0.01771  -0.0286   1.0001   0.1963
  -5.200  -0.4386   0.02843   0.01835  -0.0292   1.0001   0.1839
  -5.300  -0.4474   0.02918   0.01910  -0.0296   1.0001   0.1731
  -5.400  -0.4564   0.02996   0.01989  -0.0301   1.0001   0.1639
  -5.500  -0.4655   0.03076   0.02070  -0.0305   1.0001   0.1561
  -5.600  -0.4747   0.03161   0.02159  -0.0309   1.0001   0.1493
  -5.700  -0.4840   0.03247   0.02245  -0.0313   1.0001   0.1434
  -5.800  -0.4932   0.03345   0.02358  -0.0317   1.0001   0.1382
  -5.900  -0.5024   0.03445   0.02468  -0.0320   1.0001   0.1337
  -6.000  -0.5116   0.03545   0.02575  -0.0323   1.0001   0.1296
  -6.100  -0.5205   0.03661   0.02710  -0.0326   1.0001   0.1262
  -6.200  -0.5290   0.03791   0.02862  -0.0329   1.0001   0.1235
  -6.300  -0.5379   0.03900   0.02975  -0.0332   1.0001   0.1206
  -6.400  -0.5455   0.04056   0.03165  -0.0335   1.0001   0.1189
  -6.500  -0.5545   0.04162   0.03270  -0.0337   1.0001   0.1164
  -6.600  -0.5610   0.04342   0.03483  -0.0339   1.0001   0.1156
  -6.700  -0.5673   0.04519   0.03688  -0.0340   1.0001   0.1149
  -6.800  -0.5733   0.04702   0.03895  -0.0341   1.0001   0.1145
  -6.900  -0.5786   0.04894   0.04109  -0.0342   1.0001   0.1144
  -7.000  -0.5833   0.05095   0.04332  -0.0341   1.0001   0.1147
  -7.100  -0.5876   0.05301   0.04556  -0.0340   1.0001   0.1152
  -7.200  -0.5918   0.05505   0.04776  -0.0339   1.0001   0.1158
  -7.300  -0.5958   0.05710   0.04995  -0.0337   1.0001   0.1166
  -7.500  -0.5973   0.06239   0.05561  -0.0325   1.0001   0.1210
  -7.600  -0.5870   0.06703   0.06056  -0.0300   1.0001   0.1281
  -7.700  -0.5835   0.07040   0.06405  -0.0283   1.0001   0.1333
  -7.800  -0.5827   0.07347   0.06717  -0.0269   1.0001   0.1388
  25.000   1.1465   0.31998   0.31298  -0.1544   0.0801   0.9999
  24.900   1.1443   0.31935   0.31235  -0.1529   0.0808   0.9999
  24.800   1.1412   0.31811   0.31112  -0.1519   0.0813   0.9999
  24.700   1.1371   0.31656   0.30955  -0.1513   0.0821   0.9999
  24.600   1.1337   0.31535   0.30833  -0.1505   0.0831   0.9999
  24.500   1.1308   0.31438   0.30736  -0.1493   0.0841   0.9999
  24.400   1.1285   0.31366   0.30663  -0.1479   0.0848   0.9999
  24.300   1.1252   0.31235   0.30533  -0.1469   0.0853   0.9999
  24.200   1.1211   0.31081   0.30377  -0.1463   0.0862   0.9999
  24.100   1.1177   0.30961   0.30257  -0.1454   0.0873   0.9999
  24.000   1.1150   0.30869   0.30165  -0.1442   0.0883   0.9999
  23.900   1.1130   0.30810   0.30105  -0.1427   0.0889   0.9999
  23.800   1.1087   0.30630   0.29925  -0.1421   0.0896   0.9999
  23.700   1.1048   0.30495   0.29789  -0.1414   0.0907   0.9999
  23.600   1.1017   0.30387   0.29680  -0.1404   0.0918   0.9999
  23.500   1.0995   0.30311   0.29605  -0.1390   0.0927   0.9999
  23.400   1.0964   0.30189   0.29483  -0.1379   0.0933   0.9999
  23.300   1.0920   0.30030   0.29322  -0.1374   0.0943   0.9999
  23.200   1.0887   0.29911   0.29202  -0.1365   0.0955   0.9999
  23.100   1.0862   0.29826   0.29118  -0.1352   0.0966   0.9999
  23.000   1.0839   0.29733   0.29026  -0.1338   0.0972   0.9999
  22.900   1.0792   0.29555   0.28846  -0.1335   0.0982   0.9999
  22.800   1.0756   0.29432   0.28722  -0.1326   0.0994   0.9999
  22.700   1.0731   0.29341   0.28631  -0.1314   0.1006   0.9999
  22.600   1.0709   0.29253   0.28545  -0.1300   0.1013   0.9999
  22.500   1.0660   0.29073   0.28363  -0.1297   0.1024   0.9999
  22.400   1.0626   0.28951   0.28240  -0.1288   0.1038   0.9999
  22.300   1.0603   0.28870   0.28159  -0.1275   0.1048   0.9999
  22.200   1.0575   0.28748   0.28038  -0.1263   0.1056   0.9999
  22.100   1.0528   0.28583   0.27871  -0.1259   0.1068   0.9999
  22.000   1.0496   0.28468   0.27756  -0.1250   0.1082   0.9999
  21.900   1.0479   0.28399   0.27687  -0.1235   0.1092   0.9999
  21.800   1.0437   0.28231   0.27519  -0.1228   0.1101   0.9999
  21.700   1.0396   0.28090   0.27377  -0.1222   0.1115   0.9999
  21.600   1.0371   0.27991   0.27278  -0.1210   0.1129   0.9999
  21.500   1.0350   0.27897   0.27185  -0.1197   0.1137   0.9999
  21.400   1.0299   0.27718   0.27005  -0.1194   0.1150   0.9999
  21.300   1.0267   0.27604   0.26890  -0.1184   0.1166   0.9999
  21.200   1.0255   0.27538   0.26825  -0.1168   0.1176   0.9999
  21.100   1.0204   0.27346   0.26632  -0.1165   0.1188   0.9999
  21.000   1.0167   0.27219   0.26504  -0.1158   0.1204   0.9999
  20.900   1.0151   0.27142   0.26428  -0.1143   0.1217   0.9999
  20.800   1.0109   0.26977   0.26263  -0.1137   0.1228   0.9999
  20.700   1.0068   0.26837   0.26122  -0.1131   0.1245   0.9999
  20.600   1.0051   0.26755   0.26040  -0.1117   0.1259   0.9999
  20.500   1.0012   0.26599   0.25884  -0.1110   0.1269   0.9999
  20.400   0.9970   0.26454   0.25738  -0.1104   0.1286   0.9999
  20.300   0.9954   0.26370   0.25655  -0.1090   0.1301   0.9999
  20.200   0.9913   0.26208   0.25492  -0.1084   0.1313   0.9999
  20.100   0.9873   0.26069   0.25352  -0.1077   0.1332   0.9999
