  
       XFOIL         Version 6.99
  
 Calculated polar for: s1075                                           
  
 1 1 Reynolds number fixed          Mach number fixed         
  
 xtrf =   1.000 (top)        1.000 (bottom)  
 Mach =   0.000     Re =     0.250 e 6     Ncrit =   9.000
  
   alpha    CL        CD       CDp       CM     Top_Xtr  Bot_Xtr
  ------ -------- --------- --------- -------- -------- --------
  20.000   0.6806   0.22278   0.21991  -0.0587   0.0363   0.9999
  19.900   0.6793   0.22173   0.21885  -0.0583   0.0368   0.9999
  19.800   0.6789   0.22045   0.21756  -0.0578   0.0375   0.9999
  19.700   0.6829   0.21820   0.21533  -0.0565   0.0383   0.9999
  19.600   0.6858   0.21622   0.21335  -0.0555   0.0386   0.9999
  19.500   0.6813   0.21568   0.21280  -0.0557   0.0389   0.9999
  19.400   0.6786   0.21495   0.21206  -0.0556   0.0393   0.9999
  19.300   0.6774   0.21387   0.21098  -0.0552   0.0399   0.9999
  19.200   0.6775   0.21252   0.20962  -0.0546   0.0406   0.9999
  19.100   0.6802   0.21061   0.20771  -0.0536   0.0412   0.9999
  19.000   0.6872   0.20798   0.20510  -0.0520   0.0415   0.9999
  18.900   0.6839   0.20711   0.20423  -0.0520   0.0418   0.9999
  18.800   0.6792   0.20673   0.20384  -0.0523   0.0423   0.9999
  18.700   0.6778   0.20572   0.20282  -0.0520   0.0428   0.9999
  18.600   0.6777   0.20442   0.20151  -0.0514   0.0434   0.9999
  18.500   0.6785   0.20291   0.20000  -0.0508   0.0437   0.9999
  18.400   0.6819   0.20091   0.19800  -0.0498   0.0443   0.9999
  18.300   0.6836   0.19923   0.19633  -0.0491   0.0443   0.9999
  18.200   0.6828   0.19797   0.19507  -0.0488   0.0440   0.9999
  18.100   1.2031   0.12841   0.12409  -0.0319   0.0129   0.9999
  18.000   1.2079   0.12573   0.12132  -0.0303   0.0129   0.9999
  17.900   1.2128   0.12303   0.11854  -0.0287   0.0130   0.9999
  17.800   1.2174   0.12043   0.11585  -0.0273   0.0130   0.9999
  17.700   1.2221   0.11786   0.11320  -0.0258   0.0130   0.9999
  17.600   1.2273   0.11518   0.11044  -0.0243   0.0130   0.9999
  17.500   1.2322   0.11262   0.10778  -0.0229   0.0130   0.9999
  17.400   1.2262   0.11255   0.10777  -0.0236   0.0132   0.9999
  17.300   1.2238   0.11160   0.10683  -0.0234   0.0133   0.9999
  17.200   1.2241   0.11006   0.10526  -0.0228   0.0134   0.9999
  17.100   1.2257   0.10823   0.10339  -0.0221   0.0135   0.9999
  17.000   1.2277   0.10634   0.10145  -0.0213   0.0136   0.9999
  16.900   1.2301   0.10439   0.09944  -0.0204   0.0137   0.9999
  16.800   1.2326   0.10241   0.09740  -0.0196   0.0138   0.9999
  16.700   1.2356   0.10037   0.09529  -0.0188   0.0139   0.9999
  16.600   1.2384   0.09836   0.09321  -0.0180   0.0139   0.9999
  16.500   1.2414   0.09633   0.09110  -0.0171   0.0140   0.9999
  16.400   1.2446   0.09427   0.08895  -0.0163   0.0141   0.9999
  16.300   1.2481   0.09218   0.08677  -0.0155   0.0142   0.9999
  16.200   1.2517   0.09008   0.08457  -0.0147   0.0143   0.9999
  16.100   1.2535   0.08836   0.08279  -0.0142   0.0144   0.9999
  16.000   1.2503   0.08769   0.08215  -0.0146   0.0146   0.9999
  15.900   1.2493   0.08655   0.08102  -0.0145   0.0148   0.9999
  15.800   1.2490   0.08527   0.07971  -0.0143   0.0149   0.9999
  15.700   1.2496   0.08382   0.07823  -0.0139   0.0151   0.9999
  15.600   1.2506   0.08228   0.07664  -0.0136   0.0152   0.9999
  15.500   1.2522   0.08065   0.07495  -0.0132   0.0154   0.9999
  15.400   1.2541   0.07896   0.07318  -0.0128   0.0156   0.9999
  15.300   1.2565   0.07719   0.07131  -0.0123   0.0157   0.9999
  15.200   1.2567   0.07590   0.07001  -0.0122   0.0159   0.9999
  15.100   1.2560   0.07479   0.06892  -0.0122   0.0162   0.9999
  15.000   1.2563   0.07348   0.06760  -0.0120   0.0164   0.9999
  14.900   1.2573   0.07204   0.06613  -0.0117   0.0166   0.9999
  14.800   1.2583   0.07063   0.06468  -0.0116   0.0168   0.9999
  14.700   1.2598   0.06912   0.06311  -0.0113   0.0170   0.9999
  14.600   1.2616   0.06756   0.06148  -0.0110   0.0173   0.9999
  14.500   1.2632   0.06611   0.05998  -0.0109   0.0175   0.9999
  14.400   1.2641   0.06481   0.05869  -0.0108   0.0177   0.9999
  14.300   1.2652   0.06342   0.05729  -0.0106   0.0180   0.9999
  14.200   1.2667   0.06198   0.05582  -0.0104   0.0182   0.9999
  14.100   1.2682   0.06052   0.05432  -0.0102   0.0185   0.9999
  14.000   1.2699   0.05901   0.05273  -0.0100   0.0189   0.9999
  13.900   1.2715   0.05754   0.05120  -0.0098   0.0192   0.9999
  13.800   1.2734   0.05610   0.04978  -0.0097   0.0194   0.9999
  13.700   1.2752   0.05465   0.04832  -0.0095   0.0198   0.9999
  13.600   1.2768   0.05323   0.04686  -0.0093   0.0201   0.9999
  13.500   1.2783   0.05179   0.04537  -0.0092   0.0205   0.9999
  13.400   1.2797   0.05036   0.04385  -0.0090   0.0211   0.9999
  13.300   1.2820   0.04891   0.04241  -0.0089   0.0213   0.9999
  13.200   1.2838   0.04750   0.04098  -0.0088   0.0217   0.9999
  13.100   1.2852   0.04613   0.03957  -0.0087   0.0222   0.9999
  13.000   1.2861   0.04483   0.03820  -0.0086   0.0228   0.9999
  12.900   1.2880   0.04344   0.03679  -0.0086   0.0233   0.9999
  12.800   1.2898   0.04211   0.03544  -0.0086   0.0239   0.9999
  12.700   1.2909   0.04086   0.03415  -0.0086   0.0245   0.9999
  12.600   1.2913   0.03968   0.03290  -0.0088   0.0253   0.9999
  12.500   1.2933   0.03839   0.03161  -0.0089   0.0259   0.9999
  12.400   1.2942   0.03725   0.03043  -0.0091   0.0267   0.9999
  12.300   1.2945   0.03618   0.02929  -0.0094   0.0277   0.9999
  12.200   1.2960   0.03505   0.02815  -0.0097   0.0285   0.9999
  12.100   1.2961   0.03406   0.02712  -0.0101   0.0297   0.9999
  12.000   1.2970   0.03306   0.02609  -0.0107   0.0306   0.9999
  11.900   1.2973   0.03215   0.02515  -0.0112   0.0319   0.9999
  11.800   1.2978   0.03126   0.02422  -0.0119   0.0332   0.9999
  11.700   1.2983   0.03042   0.02337  -0.0128   0.0346   0.9999
  11.600   1.2987   0.02964   0.02255  -0.0137   0.0361   0.9999
  11.500   1.2989   0.02891   0.02179  -0.0147   0.0378   0.9999
  11.400   1.2996   0.02820   0.02108  -0.0160   0.0396   0.9999
  11.300   1.2996   0.02757   0.02042  -0.0172   0.0419   0.9999
  11.200   1.2992   0.02696   0.01979  -0.0184   0.0442   0.9999
  11.100   1.2977   0.02632   0.01915  -0.0195   0.0471   0.9999
  11.000   1.2955   0.02571   0.01853  -0.0205   0.0504   0.9999
  10.900   1.2925   0.02511   0.01793  -0.0213   0.0546   0.9999
  10.800   1.2892   0.02452   0.01736  -0.0222   0.0590   0.9999
  10.700   1.2854   0.02395   0.01681  -0.0229   0.0641   0.9999
  10.600   1.2807   0.02341   0.01629  -0.0236   0.0700   0.9999
  10.500   1.2757   0.02289   0.01580  -0.0242   0.0763   0.9999
  10.400   1.2704   0.02239   0.01532  -0.0248   0.0830   0.9999
  10.300   1.2644   0.02193   0.01488  -0.0254   0.0900   0.9999
  10.200   1.2581   0.02149   0.01446  -0.0258   0.0974   0.9999
  10.100   1.2514   0.02107   0.01407  -0.0263   0.1050   0.9999
  10.000   1.2445   0.02067   0.01369  -0.0267   0.1124   0.9999
   9.900   1.2373   0.02029   0.01333  -0.0271   0.1199   0.9999
   9.800   1.2297   0.01994   0.01298  -0.0274   0.1274   0.9999
   9.700   1.2218   0.01961   0.01266  -0.0277   0.1351   0.9999
   9.600   1.2138   0.01929   0.01235  -0.0280   0.1425   0.9999
   9.500   1.2055   0.01898   0.01205  -0.0283   0.1498   0.9999
   9.400   1.1970   0.01869   0.01177  -0.0285   0.1573   0.9999
   9.300   1.1884   0.01842   0.01150  -0.0287   0.1646   0.9999
   9.200   1.1797   0.01815   0.01124  -0.0290   0.1717   0.9999
   9.100   1.1707   0.01790   0.01099  -0.0291   0.1791   0.9999
   9.000   1.1617   0.01766   0.01074  -0.0293   0.1864   0.9999
   8.900   1.1525   0.01742   0.01051  -0.0295   0.1937   0.9999
   8.800   1.1432   0.01721   0.01029  -0.0296   0.2012   0.9999
   8.700   1.1339   0.01699   0.01008  -0.0298   0.2085   0.9999
   8.600   1.1244   0.01678   0.00987  -0.0299   0.2158   0.9999
   8.400   1.1052   0.01639   0.00947  -0.0302   0.2302   0.9999
   8.300   1.0954   0.01622   0.00928  -0.0303   0.2371   0.9999
   8.200   1.0857   0.01602   0.00909  -0.0304   0.2434   0.9999
   8.100   1.0758   0.01585   0.00891  -0.0305   0.2499   0.9999
   8.000   1.0658   0.01568   0.00872  -0.0305   0.2560   0.9999
   7.900   1.0559   0.01550   0.00855  -0.0306   0.2620   0.9999
   7.800   1.0457   0.01534   0.00837  -0.0307   0.2683   0.9999
   7.700   1.0356   0.01518   0.00820  -0.0308   0.2743   0.9999
   7.600   1.0254   0.01502   0.00804  -0.0308   0.2801   0.9999
   7.500   1.0152   0.01487   0.00788  -0.0309   0.2863   0.9999
   7.400   1.0048   0.01472   0.00772  -0.0310   0.2924   0.9999
   7.300   0.9946   0.01457   0.00757  -0.0310   0.2983   0.9999
   7.200   0.9842   0.01443   0.00743  -0.0310   0.3043   0.9999
   7.100   0.9737   0.01429   0.00728  -0.0311   0.3106   0.9999
   7.000   0.9633   0.01415   0.00714  -0.0311   0.3163   0.9999
   6.900   0.9528   0.01401   0.00700  -0.0312   0.3221   0.9999
   6.800   0.9423   0.01388   0.00686  -0.0312   0.3281   0.9999
   6.700   0.9317   0.01376   0.00673  -0.0312   0.3341   0.9999
   6.600   0.9211   0.01362   0.00660  -0.0312   0.3397   0.9999
   6.500   0.9105   0.01350   0.00648  -0.0312   0.3454   0.9999
   6.400   0.8998   0.01338   0.00635  -0.0313   0.3512   0.9999
   6.300   0.8891   0.01326   0.00622  -0.0313   0.3572   0.9999
   6.200   0.8784   0.01314   0.00611  -0.0313   0.3627   0.9999
   6.100   0.8677   0.01302   0.00599  -0.0313   0.3682   0.9999
   6.000   0.8569   0.01291   0.00588  -0.0313   0.3739   0.9999
   5.900   0.8461   0.01280   0.00577  -0.0313   0.3798   0.9999
   5.800   0.8353   0.01269   0.00566  -0.0313   0.3855   0.9999
   5.700   0.8245   0.01258   0.00556  -0.0313   0.3911   0.9999
   5.600   0.8136   0.01247   0.00546  -0.0313   0.3967   0.9999
   5.500   0.8027   0.01237   0.00536  -0.0313   0.4024   0.9999
   5.400   0.7918   0.01227   0.00526  -0.0313   0.4083   0.9999
   5.300   0.7809   0.01217   0.00517  -0.0313   0.4138   0.9999
   5.200   0.7700   0.01207   0.00508  -0.0313   0.4194   0.9999
   5.100   0.7590   0.01197   0.00499  -0.0313   0.4249   0.9999
   5.000   0.7481   0.01188   0.00490  -0.0312   0.4305   0.9999
   4.900   0.7371   0.01179   0.00481  -0.0312   0.4364   0.9999
   4.800   0.7261   0.01170   0.00473  -0.0312   0.4420   0.9999
   4.700   0.7151   0.01161   0.00466  -0.0312   0.4474   0.9999
   4.600   0.7041   0.01152   0.00458  -0.0312   0.4530   0.9999
   4.500   0.6931   0.01144   0.00451  -0.0312   0.4586   0.9999
   4.400   0.6820   0.01135   0.00443  -0.0312   0.4644   0.9999
   4.300   0.6710   0.01127   0.00436  -0.0311   0.4700   0.9999
   4.200   0.6599   0.01119   0.00430  -0.0311   0.4754   0.9999
   4.100   0.6489   0.01111   0.00423  -0.0311   0.4809   0.9999
   4.000   0.6378   0.01103   0.00417  -0.0311   0.4866   0.9999
   3.900   0.6268   0.01096   0.00411  -0.0311   0.4923   0.9999
   3.800   0.6157   0.01089   0.00405  -0.0311   0.4980   0.9999
   3.700   0.6046   0.01081   0.00399  -0.0311   0.5035   0.9999
   3.600   0.5936   0.01074   0.00394  -0.0311   0.5089   0.9999
   3.500   0.5825   0.01067   0.00389  -0.0311   0.5145   0.9999
   3.400   0.5714   0.01060   0.00384  -0.0311   0.5201   0.9999
   3.300   0.5603   0.01054   0.00379  -0.0311   0.5259   0.9999
   3.200   0.5493   0.01047   0.00375  -0.0311   0.5314   0.9999
   3.100   0.5382   0.01041   0.00371  -0.0311   0.5369   0.9999
   3.000   0.5272   0.01034   0.00367  -0.0311   0.5423   0.9999
   2.900   0.5161   0.01028   0.00363  -0.0311   0.5479   0.9999
   2.800   0.5051   0.01022   0.00359  -0.0311   0.5536   0.9999
   2.700   0.4940   0.01017   0.00356  -0.0311   0.5594   0.9999
   2.600   0.4830   0.01011   0.00353  -0.0311   0.5647   0.9999
   2.500   0.4720   0.01005   0.00350  -0.0312   0.5702   0.9999
   2.400   0.4610   0.01000   0.00347  -0.0312   0.5757   0.9999
   2.300   0.4500   0.00995   0.00345  -0.0312   0.5813   0.9999
   2.200   0.4390   0.00990   0.00343  -0.0312   0.5870   0.9999
   2.100   0.4281   0.00985   0.00340  -0.0313   0.5926   0.9999
   2.000   0.4172   0.00980   0.00339  -0.0313   0.5980   0.9999
   1.900   0.4062   0.00975   0.00337  -0.0314   0.6034   0.9999
   1.800   0.3954   0.00970   0.00336  -0.0314   0.6089   0.9999
   1.700   0.3845   0.00966   0.00335  -0.0315   0.6144   0.9999
   1.600   0.3736   0.00962   0.00334  -0.0315   0.6201   0.9999
   1.500   0.3628   0.00958   0.00333  -0.0316   0.6257   0.9999
   1.400   0.3520   0.00954   0.00333  -0.0317   0.6310   0.9999
   1.300   0.3413   0.00950   0.00333  -0.0318   0.6364   0.9999
   1.200   0.3306   0.00946   0.00334  -0.0319   0.6418   0.9999
   1.100   0.3199   0.00943   0.00334  -0.0320   0.6473   0.9999
   1.000   0.3092   0.00940   0.00335  -0.0321   0.6529   0.9999
   0.900   0.2986   0.00937   0.00335  -0.0322   0.6585   0.9999
   0.800   0.2880   0.00934   0.00337  -0.0323   0.6638   0.9999
   0.700   0.2775   0.00931   0.00339  -0.0324   0.6692   0.9999
   0.600   0.2670   0.00929   0.00341  -0.0326   0.6745   0.9999
   0.500   0.2566   0.00926   0.00343  -0.0327   0.6799   0.9999
   0.400   0.2462   0.00924   0.00346  -0.0329   0.6854   0.9999
   0.300   0.2357   0.00923   0.00348  -0.0330   0.6910   0.9999
   0.200   0.2254   0.00921   0.00351  -0.0331   0.6967   0.9999
   0.100   0.2151   0.00920   0.00355  -0.0333   0.7020   0.9999
  -0.000   0.2048   0.00919   0.00360  -0.0335   0.7073   0.9999
  -0.100   0.1945   0.00918   0.00364  -0.0336   0.7128   0.9999
  -0.200   0.1844   0.00918   0.00370  -0.0338   0.7182   0.9999
  -0.300   0.1742   0.00918   0.00375  -0.0339   0.7238   0.9999
  -0.400   0.1641   0.00919   0.00382  -0.0341   0.7295   0.9999
  -0.500   0.1461   0.00915   0.00383  -0.0326   0.7353   0.9958
  -0.600   0.1258   0.00909   0.00383  -0.0306   0.7409   0.9890
  -0.700   0.1069   0.00902   0.00382  -0.0290   0.7466   0.9783
  -0.800   0.0883   0.00896   0.00382  -0.0275   0.7523   0.9647
  -0.900   0.0696   0.00893   0.00382  -0.0260   0.7581   0.9476
  -1.000   0.0507   0.00891   0.00384  -0.0246   0.7637   0.9266
  -1.100   0.0346   0.00891   0.00386  -0.0238   0.7691   0.9008
  -1.200   0.0224   0.00895   0.00388  -0.0239   0.7743   0.8724
  -1.300   0.0124   0.00901   0.00390  -0.0245   0.7796   0.8444
  -1.400   0.0030   0.00909   0.00392  -0.0252   0.7849   0.8175
  -1.500  -0.0063   0.00916   0.00395  -0.0259   0.7903   0.7918
  -1.600  -0.0159   0.00924   0.00397  -0.0265   0.7958   0.7671
  -1.700  -0.0257   0.00932   0.00399  -0.0270   0.8014   0.7436
  -1.800  -0.0355   0.00940   0.00402  -0.0274   0.8068   0.7209
  -1.900  -0.0455   0.00947   0.00404  -0.0279   0.8122   0.6985
  -2.000  -0.0555   0.00955   0.00407  -0.0283   0.8177   0.6770
  -2.100  -0.0656   0.00962   0.00410  -0.0286   0.8233   0.6556
  -2.200  -0.0758   0.00970   0.00413  -0.0290   0.8291   0.6344
  -2.300  -0.0860   0.00978   0.00416  -0.0293   0.8351   0.6135
  -2.400  -0.0961   0.00985   0.00419  -0.0297   0.8407   0.5924
  -2.500  -0.1061   0.00993   0.00423  -0.0300   0.8464   0.5718
  -2.600  -0.1163   0.01001   0.00426  -0.0303   0.8524   0.5512
  -2.700  -0.1264   0.01008   0.00430  -0.0306   0.8586   0.5309
  -2.800  -0.1364   0.01016   0.00434  -0.0310   0.8646   0.5109
  -2.900  -0.1463   0.01023   0.00438  -0.0314   0.8707   0.4916
  -3.000  -0.1563   0.01031   0.00443  -0.0317   0.8771   0.4721
  -3.100  -0.1662   0.01039   0.00447  -0.0321   0.8835   0.4529
  -3.200  -0.1759   0.01047   0.00452  -0.0325   0.8900   0.4339
  -3.300  -0.1857   0.01055   0.00457  -0.0329   0.8970   0.4145
  -3.400  -0.1953   0.01064   0.00462  -0.0333   0.9035   0.3951
  -3.500  -0.2049   0.01073   0.00467  -0.0337   0.9107   0.3749
  -3.600  -0.2145   0.01084   0.00472  -0.0341   0.9177   0.3531
  -3.700  -0.2243   0.01095   0.00478  -0.0345   0.9250   0.3307
  -3.800  -0.2345   0.01108   0.00484  -0.0348   0.9320   0.3077
  -3.900  -0.2452   0.01122   0.00491  -0.0349   0.9394   0.2850
  -4.000  -0.2568   0.01136   0.00499  -0.0348   0.9461   0.2630
  -4.100  -0.2691   0.01152   0.00508  -0.0346   0.9529   0.2419
  -4.200  -0.2823   0.01170   0.00519  -0.0341   0.9592   0.2211
  -4.300  -0.2962   0.01189   0.00531  -0.0334   0.9648   0.2001
  -4.400  -0.3106   0.01210   0.00545  -0.0327   0.9702   0.1796
  -4.500  -0.3255   0.01233   0.00560  -0.0318   0.9752   0.1589
  -4.600  -0.3406   0.01259   0.00578  -0.0308   0.9798   0.1383
  -4.700  -0.3560   0.01288   0.00598  -0.0297   0.9839   0.1176
  -4.800  -0.3716   0.01322   0.00621  -0.0286   0.9875   0.0968
  -4.900  -0.3873   0.01363   0.00650  -0.0275   0.9908   0.0780
  -5.000  -0.4034   0.01404   0.00682  -0.0262   0.9934   0.0649
  -5.100  -0.4196   0.01443   0.00716  -0.0250   0.9958   0.0559
  -5.200  -0.4359   0.01481   0.00750  -0.0238   0.9981   0.0497
  -5.300  -0.4513   0.01517   0.00786  -0.0228   1.0001   0.0448
  -5.400  -0.4568   0.01537   0.00802  -0.0236   1.0001   0.0424
  -5.500  -0.4635   0.01558   0.00824  -0.0243   1.0001   0.0400
  -5.600  -0.4707   0.01585   0.00849  -0.0249   1.0001   0.0380
  -5.700  -0.4787   0.01613   0.00874  -0.0254   1.0001   0.0361
  -5.800  -0.4875   0.01645   0.00907  -0.0257   1.0001   0.0344
  -5.900  -0.4963   0.01681   0.00937  -0.0260   1.0001   0.0330
  -6.000  -0.5059   0.01716   0.00976  -0.0263   1.0001   0.0316
  -6.100  -0.5154   0.01752   0.01008  -0.0265   1.0001   0.0305
  -6.200  -0.5251   0.01793   0.01051  -0.0267   1.0001   0.0296
  -6.300  -0.5350   0.01832   0.01092  -0.0269   1.0001   0.0285
  -6.400  -0.5447   0.01874   0.01128  -0.0270   1.0001   0.0278
  -6.500  -0.5547   0.01924   0.01185  -0.0272   1.0001   0.0270
  -6.600  -0.5648   0.01970   0.01234  -0.0274   1.0001   0.0263
  -6.700  -0.5748   0.02013   0.01274  -0.0275   1.0001   0.0258
  -6.800  -0.5847   0.02068   0.01326  -0.0277   1.0001   0.0253
  -6.900  -0.5949   0.02124   0.01397  -0.0279   1.0001   0.0247
  -7.000  -0.6049   0.02179   0.01460  -0.0281   1.0001   0.0242
  -7.100  -0.6150   0.02235   0.01520  -0.0282   1.0001   0.0239
  -7.200  -0.6250   0.02290   0.01571  -0.0283   1.0001   0.0235
  -7.300  -0.6350   0.02354   0.01636  -0.0284   1.0001   0.0232
  -7.400  -0.6445   0.02434   0.01738  -0.0287   1.0001   0.0230
  -7.500  -0.6538   0.02520   0.01842  -0.0290   1.0001   0.0227
  -7.600  -0.6630   0.02605   0.01943  -0.0293   1.0001   0.0225
  -7.700  -0.6719   0.02702   0.02057  -0.0296   1.0001   0.0224
  -7.800  -0.6804   0.02810   0.02182  -0.0300   1.0001   0.0224
  -7.900  -0.6883   0.02930   0.02321  -0.0303   1.0001   0.0224
  -8.000  -0.6956   0.03062   0.02474  -0.0307   1.0001   0.0225
  -8.100  -0.7023   0.03202   0.02636  -0.0311   1.0001   0.0225
  -8.200  -0.7085   0.03349   0.02803  -0.0315   1.0001   0.0227
  -8.300  -0.7140   0.03504   0.02977  -0.0320   1.0001   0.0228
  -8.400  -0.7199   0.03642   0.03129  -0.0323   1.0001   0.0230
  -8.500  -0.7264   0.03763   0.03257  -0.0325   1.0001   0.0232
  -8.600  -0.7336   0.03878   0.03374  -0.0327   1.0001   0.0233
