  
       XFOIL         Version 6.99
  
 Calculated polar for: s1075                                           
  
 1 1 Reynolds number fixed          Mach number fixed         
  
 xtrf =   1.000 (top)        1.000 (bottom)  
 Mach =   0.000     Re =     0.080 e 6     Ncrit =   9.000
  
   alpha    CL        CD       CDp       CM     Top_Xtr  Bot_Xtr
  ------ -------- --------- --------- -------- -------- --------
  20.000   0.6664   0.22906   0.22398  -0.0586   0.0989   0.9999
  19.900   0.6664   0.22797   0.22289  -0.0581   0.1004   0.9999
  19.700   0.6643   0.22551   0.22042  -0.0573   0.1025   0.9999
  19.600   0.6637   0.22439   0.21929  -0.0568   0.1043   0.9999
  19.500   0.6663   0.22340   0.21830  -0.0559   0.1052   0.9999
  19.400   0.6620   0.22197   0.21685  -0.0560   0.1065   0.9999
  19.300   0.6614   0.22087   0.21575  -0.0556   0.1084   0.9999
  19.200   0.6643   0.21990   0.21478  -0.0546   0.1093   0.9999
  19.100   0.6597   0.21846   0.21333  -0.0548   0.1108   0.9999
  19.000   0.6595   0.21737   0.21223  -0.0543   0.1127   0.9999
  18.800   0.6573   0.21497   0.20982  -0.0536   0.1154   0.9999
  18.700   0.6585   0.21396   0.20880  -0.0529   0.1172   0.9999
  18.500   0.6554   0.21153   0.20635  -0.0524   0.1204   0.9999
  18.400   0.6586   0.21061   0.20544  -0.0515   0.1218   0.9999
  18.300   0.6545   0.20918   0.20400  -0.0515   0.1234   0.9999
  18.200   0.6549   0.20816   0.20297  -0.0510   0.1255   0.9999
  18.100   0.6556   0.20700   0.20181  -0.0505   0.1267   0.9999
  18.000   0.6526   0.20580   0.20059  -0.0504   0.1289   0.9999
  17.900   0.6563   0.20494   0.19973  -0.0495   0.1303   0.9999
  17.800   0.6516   0.20350   0.19828  -0.0497   0.1323   0.9999
  17.700   0.6536   0.20257   0.19734  -0.0490   0.1343   0.9999
  17.600   0.6518   0.20126   0.19603  -0.0488   0.1358   0.9999
  17.500   0.6513   0.20023   0.19498  -0.0484   0.1381   0.9999
  17.400   0.6533   0.19916   0.19391  -0.0478   0.1394   0.9999
  17.300   0.6498   0.19793   0.19266  -0.0478   0.1419   0.9999
  17.200   0.6545   0.19711   0.19185  -0.0469   0.1433   0.9999
  17.100   0.6488   0.19567   0.19039  -0.0471   0.1457   0.9999
  17.000   0.6527   0.19484   0.18955  -0.0464   0.1475   0.9999
  16.900   0.6484   0.19345   0.18815  -0.0464   0.1496   0.9999
  16.800   0.6515   0.19258   0.18728  -0.0458   0.1517   0.9999
  16.700   0.6483   0.19126   0.18594  -0.0457   0.1537   0.9999
  16.600   0.6506   0.19037   0.18504  -0.0452   0.1559   0.9999
  16.500   0.6485   0.18909   0.18376  -0.0450   0.1577   0.9999
  16.400   0.6500   0.18816   0.18282  -0.0446   0.1602   0.9999
  16.200   0.6499   0.18601   0.18065  -0.0440   0.1645   0.9999
  16.000   0.6502   0.18389   0.17850  -0.0434   0.1690   0.9999
  15.900   0.6487   0.18267   0.17726  -0.0432   0.1710   0.9999
  15.800   0.6511   0.18180   0.17639  -0.0427   0.1735   0.9999
  15.700   0.6486   0.18055   0.17512  -0.0427   0.1758   0.9999
  15.600   0.6526   0.17976   0.17433  -0.0421   0.1781   0.9999
  15.500   0.6489   0.17849   0.17304  -0.0422   0.1807   0.9999
  15.400   0.6547   0.17778   0.17232  -0.0415   0.1827   0.9999
  15.300   0.6500   0.17649   0.17101  -0.0417   0.1858   0.9999
  15.200   0.6575   0.17583   0.17035  -0.0409   0.1873   0.9999
  15.100   0.6522   0.17454   0.16903  -0.0411   0.1908   0.9999
  15.000   0.6538   0.17351   0.16800  -0.0409   0.1928   0.9999
  14.900   0.6556   0.17269   0.16716  -0.0406   0.1957   0.9999
  14.800   0.6531   0.17150   0.16595  -0.0406   0.1984   0.9999
  14.700   0.6596   0.17087   0.16532  -0.0401   0.2005   0.9999
  14.600   0.6555   0.16967   0.16409  -0.0403   0.2038   0.9999
  14.500   0.6642   0.16911   0.16354  -0.0397   0.2052   0.9999
  14.400   0.6597   0.16793   0.16233  -0.0399   0.2089   0.9999
  14.300   0.6597   0.16687   0.16125  -0.0398   0.2113   0.9999
  14.200   0.6647   0.16613   0.16050  -0.0395   0.2138   0.9999
  14.100   0.6615   0.16493   0.15927  -0.0396   0.2169   0.9999
  14.000   0.6694   0.16399   0.15833  -0.0391   0.2186   0.9999
  13.900   0.6653   0.16275   0.15706  -0.0393   0.2220   0.9999
  13.800   0.6743   0.16166   0.15597  -0.0389   0.2232   0.9999
  13.600   0.6787   0.15915   0.15343  -0.0386   0.2277   0.9999
  13.500   0.6749   0.15793   0.15218  -0.0388   0.2315   0.9999
  13.400   0.6827   0.15650   0.15074  -0.0384   0.2322   0.9999
  13.300   0.6887   0.15487   0.14911  -0.0380   0.2323   0.9999
  13.200   0.6927   0.15313   0.14735  -0.0377   0.2323   0.9999
  13.100   0.6945   0.15129   0.14550  -0.0374   0.2319   0.9999
  13.000   1.1953   0.05615   0.04872   0.0091   0.0690   0.9999
  12.800   1.2719   0.05520   0.04728   0.0021   0.0665   0.9999
  12.500   1.2693   0.05189   0.04383   0.0003   0.0722   0.9999
  12.400   1.2692   0.05079   0.04267  -0.0004   0.0742   0.9999
  12.300   1.2694   0.04973   0.04155  -0.0011   0.0764   0.9999
  12.200   1.2664   0.04879   0.04063  -0.0017   0.0792   0.9999
  12.100   1.2711   0.04763   0.03928  -0.0030   0.0810   0.9999
  12.000   1.2668   0.04676   0.03848  -0.0036   0.0843   0.9999
  11.900   1.2644   0.04587   0.03762  -0.0043   0.0876   0.9999
  11.800   1.2633   0.04496   0.03671  -0.0052   0.0908   0.9999
  11.700   1.2632   0.04407   0.03578  -0.0063   0.0942   0.9999
  11.600   1.2624   0.04317   0.03485  -0.0073   0.0980   0.9999
  11.500   1.2610   0.04230   0.03398  -0.0082   0.1021   0.9999
  11.400   1.2594   0.04147   0.03316  -0.0091   0.1066   0.9999
  11.300   1.2578   0.04064   0.03234  -0.0100   0.1114   0.9999
  11.200   1.2566   0.03981   0.03149  -0.0109   0.1166   0.9999
  11.100   1.2560   0.03897   0.03059  -0.0120   0.1220   0.9999
  11.000   1.2529   0.03828   0.02999  -0.0128   0.1279   0.9999
  10.900   1.2516   0.03752   0.02919  -0.0138   0.1342   0.9999
  10.800   1.2488   0.03687   0.02857  -0.0146   0.1406   0.9999
  10.700   1.2471   0.03616   0.02781  -0.0156   0.1475   0.9999
  10.600   1.2434   0.03560   0.02731  -0.0164   0.1546   0.9999
  10.500   1.2404   0.03500   0.02670  -0.0173   0.1619   0.9999
  10.400   1.2375   0.03442   0.02607  -0.0182   0.1697   0.9999
  10.300   1.2330   0.03395   0.02564  -0.0189   0.1774   0.9999
  10.200   1.2284   0.03349   0.02519  -0.0197   0.1853   0.9999
  10.100   1.2237   0.03304   0.02473  -0.0204   0.1934   0.9999
  10.000   1.2188   0.03260   0.02426  -0.0211   0.2016   0.9999
   9.900   1.2137   0.03218   0.02381  -0.0218   0.2100   0.9999
   9.800   1.2074   0.03184   0.02348  -0.0224   0.2181   0.9999
   9.700   1.2008   0.03151   0.02316  -0.0230   0.2262   0.9999
   9.600   1.1942   0.03116   0.02280  -0.0235   0.2342   0.9999
   9.500   1.1875   0.03082   0.02242  -0.0241   0.2424   0.9999
   9.400   1.1806   0.03048   0.02203  -0.0246   0.2505   0.9999
   9.300   1.1724   0.03022   0.02180  -0.0251   0.2582   0.9999
   9.200   1.1648   0.02992   0.02148  -0.0255   0.2659   0.9999
   9.100   1.1573   0.02959   0.02109  -0.0260   0.2739   0.9999
   9.000   1.1486   0.02936   0.02088  -0.0264   0.2813   0.9999
   8.900   1.1403   0.02909   0.02058  -0.0268   0.2889   0.9999
   8.800   1.1323   0.02879   0.02022  -0.0272   0.2967   0.9999
   8.700   1.1230   0.02859   0.02005  -0.0275   0.3037   0.9999
   8.600   1.1146   0.02831   0.01972  -0.0279   0.3113   0.9999
   8.500   1.1054   0.02809   0.01950  -0.0282   0.3184   0.9999
   8.400   1.0965   0.02784   0.01922  -0.0286   0.3257   0.9999
   8.300   1.0874   0.02762   0.01897  -0.0289   0.3328   0.9999
   8.200   1.0781   0.02739   0.01872  -0.0292   0.3398   0.9999
   8.100   1.0688   0.02716   0.01846  -0.0295   0.3469   0.9999
   8.000   1.0593   0.02694   0.01822  -0.0298   0.3537   0.9999
   7.900   1.0498   0.02672   0.01798  -0.0300   0.3606   0.9999
   7.800   1.0403   0.02649   0.01772  -0.0303   0.3674   0.9999
   7.700   1.0305   0.02629   0.01752  -0.0306   0.3740   0.9999
   7.600   1.0211   0.02605   0.01722  -0.0308   0.3810   0.9999
   7.500   1.0110   0.02587   0.01705  -0.0311   0.3873   0.9999
   7.400   1.0016   0.02562   0.01674  -0.0313   0.3943   0.9999
   7.300   0.9914   0.02545   0.01657  -0.0316   0.4006   0.9999
   7.200   0.9814   0.02525   0.01636  -0.0318   0.4071   0.9999
   7.100   0.9717   0.02502   0.01609  -0.0320   0.4138   0.9999
   7.000   0.9614   0.02486   0.01593  -0.0323   0.4200   0.9999
   6.900   0.9516   0.02464   0.01568  -0.0325   0.4267   0.9999
   6.800   0.9415   0.02446   0.01547  -0.0327   0.4330   0.9999
   6.700   0.9312   0.02429   0.01530  -0.0329   0.4392   0.9999
   6.600   0.9214   0.02406   0.01503  -0.0331   0.4460   0.9999
   6.500   0.9110   0.02391   0.01487  -0.0334   0.4520   0.9999
   6.400   0.9007   0.02374   0.01470  -0.0336   0.4582   0.9999
   6.300   0.8909   0.02352   0.01443  -0.0338   0.4651   0.9999
   6.200   0.8804   0.02338   0.01430  -0.0340   0.4709   0.9999
   6.100   0.8700   0.02322   0.01413  -0.0342   0.4770   0.9999
   6.000   0.8600   0.02301   0.01388  -0.0344   0.4838   0.9999
   5.900   0.8495   0.02287   0.01375  -0.0346   0.4896   0.9999
   5.800   0.8391   0.02272   0.01360  -0.0348   0.4957   0.9999
   5.700   0.8289   0.02254   0.01338  -0.0350   0.5022   0.9999
   5.600   0.8185   0.02239   0.01323  -0.0352   0.5083   0.9999
   5.500   0.8081   0.02225   0.01310  -0.0354   0.5142   0.9999
   5.400   0.7978   0.02209   0.01291  -0.0356   0.5206   0.9999
   5.300   0.7874   0.02193   0.01274  -0.0358   0.5268   0.9999
   5.200   0.7769   0.02181   0.01262  -0.0360   0.5327   0.9999
   5.100   0.7665   0.02166   0.01248  -0.0363   0.5389   0.9999
   5.000   0.7563   0.02150   0.01229  -0.0364   0.5454   0.9999
   4.900   0.7458   0.02139   0.01219  -0.0367   0.5512   0.9999
   4.800   0.7353   0.02126   0.01207  -0.0369   0.5572   0.9999
   4.700   0.7251   0.02110   0.01189  -0.0371   0.5638   0.9999
   4.600   0.7146   0.02099   0.01178  -0.0373   0.5696   0.9999
   4.500   0.7041   0.02088   0.01168  -0.0376   0.5755   0.9999
   4.400   0.6938   0.02075   0.01154  -0.0378   0.5818   0.9999
   4.300   0.6834   0.02061   0.01140  -0.0380   0.5881   0.9999
   4.200   0.6729   0.02052   0.01132  -0.0383   0.5939   0.9999
   4.100   0.6626   0.02041   0.01122  -0.0385   0.5999   0.9999
   4.000   0.6523   0.02026   0.01106  -0.0387   0.6065   0.9999
   3.900   0.6419   0.02017   0.01099  -0.0390   0.6122   0.9999
   3.800   0.6315   0.02008   0.01091  -0.0393   0.6181   0.9999
   3.700   0.6212   0.01996   0.01080  -0.0395   0.6243   0.9999
   3.600   0.6109   0.01984   0.01068  -0.0398   0.6307   0.9999
   3.500   0.6006   0.01976   0.01061  -0.0401   0.6364   0.9999
   3.400   0.5903   0.01967   0.01054  -0.0404   0.6423   0.9999
   3.300   0.5801   0.01955   0.01041  -0.0406   0.6489   0.9999
   3.200   0.5698   0.01946   0.01034  -0.0409   0.6547   0.9999
   3.100   0.5596   0.01937   0.01028  -0.0413   0.6605   0.9999
   3.000   0.5494   0.01928   0.01020  -0.0416   0.6666   0.9999
   2.900   0.5393   0.01916   0.01009  -0.0418   0.6732   0.9999
   2.800   0.5291   0.01909   0.01004  -0.0422   0.6788   0.9999
   2.700   0.5190   0.01901   0.00998  -0.0426   0.6847   0.9999
   2.600   0.5090   0.01890   0.00989  -0.0429   0.6911   0.9999
   2.500   0.4990   0.01881   0.00982  -0.0432   0.6973   0.9999
   2.400   0.4890   0.01874   0.00977  -0.0436   0.7030   0.9999
   2.300   0.4791   0.01865   0.00970  -0.0440   0.7091   0.9999
   2.200   0.4692   0.01854   0.00960  -0.0443   0.7158   0.9999
   2.100   0.4593   0.01847   0.00957  -0.0448   0.7215   0.9999
   2.000   0.4495   0.01839   0.00952  -0.0452   0.7274   0.9999
   1.900   0.4398   0.01830   0.00945  -0.0456   0.7337   0.9999
   1.800   0.4301   0.01821   0.00938  -0.0460   0.7401   0.9999
   1.700   0.4205   0.01814   0.00935  -0.0465   0.7459   0.9999
   1.600   0.4108   0.01806   0.00930  -0.0469   0.7520   0.9999
   1.500   0.4013   0.01796   0.00922  -0.0473   0.7588   0.9999
   1.400   0.3919   0.01789   0.00920  -0.0479   0.7646   0.9999
   1.300   0.3825   0.01782   0.00916  -0.0484   0.7707   0.9999
   1.200   0.3731   0.01773   0.00910  -0.0489   0.7774   0.9999
   1.100   0.3638   0.01766   0.00907  -0.0494   0.7835   0.9999
   1.000   0.3546   0.01759   0.00904  -0.0500   0.7896   0.9999
   0.900   0.3455   0.01750   0.00899  -0.0505   0.7964   0.9999
   0.800   0.3364   0.01743   0.00896  -0.0511   0.8026   0.9999
   0.700   0.3273   0.01737   0.00894  -0.0517   0.8089   0.9999
   0.600   0.3184   0.01728   0.00888  -0.0522   0.8159   0.9999
   0.500   0.3094   0.01722   0.00888  -0.0529   0.8220   0.9999
   0.400   0.3004   0.01716   0.00886  -0.0535   0.8285   0.9999
   0.300   0.2916   0.01708   0.00882  -0.0541   0.8355   0.9999
   0.200   0.2824   0.01703   0.00882  -0.0547   0.8419   0.9999
   0.100   0.2736   0.01696   0.00879  -0.0552   0.8491   0.9999
  -0.000   0.2643   0.01692   0.00880  -0.0558   0.8555   0.9999
  -0.100   0.2550   0.01686   0.00880  -0.0563   0.8625   0.9999
  -0.200   0.2455   0.01682   0.00880  -0.0568   0.8695   0.9999
  -0.300   0.2356   0.01678   0.00882  -0.0571   0.8764   0.9999
  -0.400   0.2254   0.01675   0.00884  -0.0574   0.8837   0.9999
  -0.500   0.2144   0.01673   0.00887  -0.0576   0.8906   0.9999
  -0.600   0.2031   0.01671   0.00891  -0.0576   0.8978   0.9999
  -0.700   0.1903   0.01671   0.00897  -0.0573   0.9047   0.9999
  -0.800   0.1774   0.01671   0.00904  -0.0569   0.9119   0.9999
  -0.900   0.1621   0.01675   0.00913  -0.0561   0.9184   0.9999
  -1.000   0.1474   0.01677   0.00922  -0.0553   0.9257   0.9999
  -1.100   0.1296   0.01683   0.00935  -0.0540   0.9317   0.9999
  -1.200   0.1113   0.01689   0.00949  -0.0524   0.9379   0.9999
  -1.300   0.0928   0.01696   0.00963  -0.0507   0.9446   0.9999
  -1.400   0.0715   0.01704   0.00981  -0.0485   0.9500   0.9999
  -1.500   0.0495   0.01713   0.00999  -0.0460   0.9554   0.9999
  -1.600   0.0261   0.01723   0.01019  -0.0432   0.9605   0.9999
  -1.700   0.0029   0.01733   0.01041  -0.0403   0.9657   0.9999
  -1.800  -0.0194   0.01744   0.01064  -0.0375   0.9715   0.9999
  -1.900  -0.0416   0.01759   0.01092  -0.0344   0.9773   0.9999
  -2.000  -0.0814   0.01758   0.01107  -0.0283   0.9795   0.9851
  -2.100  -0.1264   0.01740   0.01105  -0.0217   0.9805   0.9484
  -2.200  -0.1659   0.01721   0.01095  -0.0166   0.9822   0.9023
  -2.300  -0.1913   0.01713   0.01087  -0.0146   0.9856   0.8540
  -2.400  -0.2092   0.01715   0.01082  -0.0140   0.9896   0.8097
  -2.600  -0.2424   0.01732   0.01079  -0.0129   0.9978   0.7282
  -2.700  -0.2554   0.01738   0.01074  -0.0128   1.0001   0.6927
  -2.800  -0.2622   0.01739   0.01065  -0.0136   1.0001   0.6640
  -2.900  -0.2693   0.01740   0.01056  -0.0143   1.0001   0.6360
  -3.000  -0.2765   0.01742   0.01048  -0.0150   1.0001   0.6087
  -3.100  -0.2837   0.01745   0.01041  -0.0156   1.0001   0.5814
  -3.200  -0.2909   0.01750   0.01035  -0.0162   1.0001   0.5544
  -3.300  -0.2983   0.01755   0.01030  -0.0168   1.0001   0.5277
  -3.400  -0.3057   0.01762   0.01027  -0.0173   1.0001   0.5008
  -3.500  -0.3129   0.01771   0.01024  -0.0179   1.0001   0.4748
  -3.600  -0.3202   0.01781   0.01024  -0.0184   1.0001   0.4484
  -3.700  -0.3272   0.01793   0.01025  -0.0189   1.0001   0.4228
  -3.800  -0.3341   0.01807   0.01028  -0.0195   1.0001   0.3972
  -3.900  -0.3409   0.01823   0.01033  -0.0201   1.0001   0.3719
  -4.000  -0.3477   0.01842   0.01039  -0.0207   1.0001   0.3469
  -4.100  -0.3544   0.01862   0.01047  -0.0213   1.0001   0.3224
  -4.200  -0.3609   0.01885   0.01056  -0.0219   1.0001   0.2985
  -4.300  -0.3674   0.01909   0.01068  -0.0225   1.0001   0.2749
  -4.400  -0.3740   0.01936   0.01083  -0.0231   1.0001   0.2518
  -4.500  -0.3806   0.01966   0.01101  -0.0237   1.0001   0.2299
  -4.600  -0.3872   0.02000   0.01123  -0.0243   1.0001   0.2094
  -4.700  -0.3940   0.02039   0.01148  -0.0249   1.0001   0.1903
  -4.800  -0.4011   0.02082   0.01181  -0.0255   1.0001   0.1726
  -4.900  -0.4083   0.02129   0.01215  -0.0261   1.0001   0.1574
  -5.000  -0.4159   0.02179   0.01255  -0.0267   1.0001   0.1440
  -5.100  -0.4238   0.02232   0.01303  -0.0273   1.0001   0.1326
  -5.200  -0.4319   0.02286   0.01351  -0.0278   1.0001   0.1233
  -5.300  -0.4403   0.02341   0.01399  -0.0282   1.0001   0.1156
  -5.400  -0.4491   0.02399   0.01454  -0.0287   1.0001   0.1086
  -5.500  -0.4580   0.02458   0.01504  -0.0291   1.0001   0.1030
  -5.600  -0.4673   0.02521   0.01573  -0.0295   1.0001   0.0977
  -5.700  -0.4767   0.02586   0.01641  -0.0298   1.0001   0.0931
  -5.800  -0.4862   0.02653   0.01707  -0.0301   1.0001   0.0892
  -5.900  -0.4958   0.02720   0.01770  -0.0304   1.0001   0.0856
  -6.000  -0.5055   0.02801   0.01869  -0.0308   1.0001   0.0825
  -6.100  -0.5152   0.02883   0.01961  -0.0311   1.0001   0.0798
  -6.200  -0.5249   0.02959   0.02038  -0.0313   1.0001   0.0775
  -6.300  -0.5344   0.03061   0.02161  -0.0317   1.0001   0.0755
  -6.400  -0.5440   0.03150   0.02259  -0.0320   1.0001   0.0738
  -6.500  -0.5533   0.03253   0.02374  -0.0322   1.0001   0.0722
  -6.600  -0.5621   0.03378   0.02526  -0.0326   1.0001   0.0711
  -6.700  -0.5708   0.03497   0.02664  -0.0329   1.0001   0.0703
  -6.800  -0.5798   0.03600   0.02774  -0.0332   1.0001   0.0693
  -6.900  -0.5882   0.03724   0.02910  -0.0334   1.0001   0.0685
  -7.000  -0.5956   0.03877   0.03090  -0.0338   1.0001   0.0684
  -7.100  -0.6026   0.04035   0.03273  -0.0341   1.0001   0.0684
  -7.200  -0.6092   0.04201   0.03461  -0.0344   1.0001   0.0685
  -7.300  -0.6157   0.04363   0.03642  -0.0346   1.0001   0.0686
  -7.500  -0.6199   0.04896   0.04254  -0.0351   1.0001   0.0718
  -7.600  -0.6252   0.05071   0.04439  -0.0352   1.0001   0.0725
  -7.800  -0.6285   0.05597   0.05008  -0.0351   1.0001   0.0771
