  
       XFOIL         Version 6.99
  
 Calculated polar for: s1075                                           
  
 1 1 Reynolds number fixed          Mach number fixed         
  
 xtrf =   1.000 (top)        1.000 (bottom)  
 Mach =   0.000     Re =     0.070 e 6     Ncrit =   9.000
  
   alpha    CL        CD       CDp       CM     Top_Xtr  Bot_Xtr
  ------ -------- --------- --------- -------- -------- --------
  -7.500  -0.6118   0.05306   0.04668  -0.0348   1.0001   0.0839
  -7.400  -0.6136   0.04960   0.04278  -0.0351   1.0001   0.0809
  -7.300  -0.6083   0.04778   0.04080  -0.0349   1.0001   0.0804
  -7.200  -0.6031   0.04591   0.03875  -0.0348   1.0001   0.0799
  -7.100  -0.5978   0.04402   0.03663  -0.0346   1.0001   0.0795
  -7.000  -0.5918   0.04224   0.03461  -0.0344   1.0001   0.0794
  -6.900  -0.5851   0.04055   0.03267  -0.0341   1.0001   0.0793
  -6.800  -0.5780   0.03897   0.03084  -0.0338   1.0001   0.0797
  -6.700  -0.5705   0.03745   0.02905  -0.0335   1.0001   0.0803
  -6.600  -0.5626   0.03596   0.02724  -0.0331   1.0001   0.0810
  -6.500  -0.5535   0.03490   0.02612  -0.0329   1.0001   0.0824
  -6.400  -0.5445   0.03382   0.02489  -0.0326   1.0001   0.0842
  -6.300  -0.5356   0.03258   0.02335  -0.0322   1.0001   0.0857
  -6.200  -0.5260   0.03175   0.02255  -0.0320   1.0001   0.0882
  -6.100  -0.5166   0.03072   0.02132  -0.0316   1.0001   0.0905
  -6.000  -0.5070   0.02988   0.02039  -0.0313   1.0001   0.0935
  -5.900  -0.4974   0.02908   0.01957  -0.0310   1.0001   0.0968
  -5.800  -0.4879   0.02829   0.01872  -0.0307   1.0001   0.1006
  -5.700  -0.4784   0.02754   0.01793  -0.0303   1.0001   0.1049
  -5.600  -0.4690   0.02683   0.01718  -0.0300   1.0001   0.1099
  -5.500  -0.4596   0.02614   0.01644  -0.0296   1.0001   0.1156
  -5.400  -0.4505   0.02548   0.01580  -0.0292   1.0001   0.1218
  -5.300  -0.4416   0.02485   0.01517  -0.0287   1.0001   0.1294
  -5.200  -0.4330   0.02424   0.01463  -0.0283   1.0001   0.1380
  -5.100  -0.4246   0.02365   0.01408  -0.0278   1.0001   0.1484
  -5.000  -0.4167   0.02309   0.01364  -0.0272   1.0001   0.1601
  -4.900  -0.4090   0.02256   0.01320  -0.0266   1.0001   0.1743
  -4.800  -0.4015   0.02206   0.01280  -0.0260   1.0001   0.1910
  -4.700  -0.3943   0.02161   0.01247  -0.0254   1.0001   0.2094
  -4.600  -0.3874   0.02120   0.01219  -0.0248   1.0001   0.2293
  -4.500  -0.3806   0.02084   0.01194  -0.0242   1.0001   0.2513
  -4.400  -0.3740   0.02051   0.01174  -0.0235   1.0001   0.2738
  -4.300  -0.3674   0.02020   0.01157  -0.0229   1.0001   0.2972
  -4.200  -0.3608   0.01992   0.01141  -0.0222   1.0001   0.3215
  -4.100  -0.3542   0.01967   0.01129  -0.0215   1.0001   0.3460
  -4.000  -0.3476   0.01943   0.01119  -0.0208   1.0001   0.3709
  -3.900  -0.3410   0.01922   0.01110  -0.0201   1.0001   0.3966
  -3.800  -0.3342   0.01904   0.01103  -0.0195   1.0001   0.4225
  -3.700  -0.3274   0.01887   0.01099  -0.0188   1.0001   0.4487
  -3.600  -0.3205   0.01873   0.01096  -0.0181   1.0001   0.4754
  -3.500  -0.3136   0.01860   0.01095  -0.0174   1.0001   0.5022
  -3.400  -0.3069   0.01850   0.01096  -0.0167   1.0001   0.5289
  -3.300  -0.3002   0.01841   0.01097  -0.0159   1.0001   0.5563
  -3.200  -0.2936   0.01833   0.01100  -0.0151   1.0001   0.5832
  -3.100  -0.2868   0.01827   0.01104  -0.0143   1.0001   0.6109
  -3.000  -0.2798   0.01821   0.01109  -0.0134   1.0001   0.6393
  -2.900  -0.2730   0.01817   0.01115  -0.0126   1.0001   0.6680
  -2.800  -0.2665   0.01814   0.01122  -0.0116   1.0001   0.6972
  -2.700  -0.2604   0.01811   0.01129  -0.0104   1.0001   0.7270
  -2.600  -0.2546   0.01810   0.01138  -0.0092   1.0001   0.7583
  -2.500  -0.2492   0.01810   0.01149  -0.0078   1.0001   0.7912
  -2.400  -0.2434   0.01812   0.01161  -0.0064   1.0001   0.8275
  -2.300  -0.2341   0.01819   0.01176  -0.0055   1.0001   0.8710
  -2.200  -0.2093   0.01841   0.01197  -0.0077   1.0001   0.9278
  -2.100  -0.1600   0.01874   0.01212  -0.0152   1.0001   0.9888
  -2.000  -0.1367   0.01871   0.01192  -0.0190   0.9971   0.9999
  -1.900  -0.1131   0.01867   0.01169  -0.0225   0.9913   0.9999
  -1.800  -0.0896   0.01867   0.01153  -0.0258   0.9857   0.9999
  -1.700  -0.0661   0.01869   0.01139  -0.0288   0.9803   0.9999
  -1.600  -0.0433   0.01870   0.01128  -0.0317   0.9745   0.9999
  -1.500  -0.0200   0.01872   0.01117  -0.0345   0.9690   0.9999
  -1.400   0.0033   0.01873   0.01107  -0.0374   0.9638   0.9999
  -1.300   0.0271   0.01873   0.01097  -0.0402   0.9586   0.9999
  -1.200   0.0501   0.01873   0.01086  -0.0428   0.9530   0.9999
  -1.100   0.0735   0.01870   0.01076  -0.0455   0.9476   0.9999
  -1.000   0.0967   0.01867   0.01064  -0.0481   0.9421   0.9999
  -0.900   0.1184   0.01864   0.01054  -0.0503   0.9365   0.9999
  -0.800   0.1395   0.01861   0.01044  -0.0524   0.9308   0.9999
  -0.700   0.1586   0.01859   0.01035  -0.0540   0.9247   0.9999
  -0.600   0.1760   0.01858   0.01029  -0.0553   0.9181   0.9999
  -0.500   0.1939   0.01856   0.01021  -0.0566   0.9120   0.9999
  -0.400   0.2095   0.01857   0.01017  -0.0575   0.9052   0.9999
  -0.300   0.2242   0.01859   0.01013  -0.0581   0.8985   0.9999
  -0.200   0.2392   0.01858   0.01008  -0.0588   0.8922   0.9999
  -0.100   0.2509   0.01864   0.01010  -0.0588   0.8847   0.9999
  -0.000   0.2638   0.01866   0.01007  -0.0590   0.8783   0.9999
   0.100   0.2745   0.01874   0.01010  -0.0588   0.8709   0.9999
   0.200   0.2859   0.01878   0.01010  -0.0587   0.8643   0.9999
   0.300   0.2961   0.01886   0.01013  -0.0584   0.8572   0.9999
   0.400   0.3064   0.01892   0.01016  -0.0580   0.8505   0.9999
   0.500   0.3164   0.01899   0.01019  -0.0576   0.8438   0.9999
   0.600   0.3259   0.01908   0.01024  -0.0572   0.8368   0.9999
   0.700   0.3359   0.01913   0.01025  -0.0567   0.8305   0.9999
   0.800   0.3449   0.01924   0.01033  -0.0562   0.8233   0.9999
   0.900   0.3544   0.01932   0.01037  -0.0556   0.8169   0.9999
   1.000   0.3638   0.01940   0.01042  -0.0551   0.8104   0.9999
   1.100   0.3729   0.01951   0.01049  -0.0545   0.8035   0.9999
   1.200   0.3824   0.01958   0.01053  -0.0539   0.7974   0.9999
   1.300   0.3915   0.01969   0.01061  -0.0534   0.7906   0.9999
   1.400   0.4009   0.01978   0.01068  -0.0529   0.7841   0.9999
   1.500   0.4103   0.01986   0.01072  -0.0523   0.7781   0.9999
   1.600   0.4195   0.01998   0.01082  -0.0518   0.7713   0.9999
   1.700   0.4290   0.02007   0.01089  -0.0513   0.7649   0.9999
   1.800   0.4385   0.02015   0.01093  -0.0507   0.7590   0.9999
   1.900   0.4478   0.02027   0.01104  -0.0502   0.7523   0.9999
   2.000   0.4574   0.02037   0.01112  -0.0498   0.7460   0.9999
   2.100   0.4670   0.02046   0.01117  -0.0492   0.7401   0.9999
   2.200   0.4765   0.02057   0.01127  -0.0488   0.7336   0.9999
   2.300   0.4861   0.02068   0.01137  -0.0483   0.7272   0.9999
   2.400   0.4959   0.02077   0.01143  -0.0478   0.7213   0.9999
   2.500   0.5056   0.02087   0.01151  -0.0474   0.7151   0.9999
   2.600   0.5152   0.02100   0.01164  -0.0470   0.7085   0.9999
   2.700   0.5251   0.02109   0.01171  -0.0465   0.7025   0.9999
   2.800   0.5350   0.02117   0.01176  -0.0461   0.6968   0.9999
   2.900   0.5447   0.02132   0.01191  -0.0457   0.6900   0.9999
   3.000   0.5546   0.02142   0.01201  -0.0453   0.6839   0.9999
   3.100   0.5647   0.02151   0.01207  -0.0449   0.6781   0.9999
   3.200   0.5745   0.02164   0.01220  -0.0445   0.6717   0.9999
   3.300   0.5845   0.02176   0.01231  -0.0442   0.6654   0.9999
   3.400   0.5946   0.02185   0.01239  -0.0438   0.6595   0.9999
   3.500   0.6047   0.02195   0.01248  -0.0434   0.6537   0.9999
   3.600   0.6146   0.02210   0.01264  -0.0431   0.6470   0.9999
   3.700   0.6247   0.02221   0.01274  -0.0427   0.6410   0.9999
   3.800   0.6349   0.02229   0.01281  -0.0423   0.6353   0.9999
   3.900   0.6449   0.02245   0.01298  -0.0421   0.6287   0.9999
   4.000   0.6550   0.02257   0.01310  -0.0417   0.6225   0.9999
   4.100   0.6653   0.02267   0.01319  -0.0414   0.6167   0.9999
   4.200   0.6754   0.02281   0.01333  -0.0411   0.6105   0.9999
   4.300   0.6855   0.02296   0.01349  -0.0408   0.6040   0.9999
   4.400   0.6958   0.02307   0.01359  -0.0405   0.5981   0.9999
   4.500   0.7062   0.02316   0.01368  -0.0401   0.5925   0.9999
   4.600   0.7161   0.02336   0.01390  -0.0399   0.5856   0.9999
   4.700   0.7264   0.02348   0.01403  -0.0396   0.5796   0.9999
   4.800   0.7368   0.02359   0.01413  -0.0392   0.5738   0.9999
   4.900   0.7468   0.02378   0.01434  -0.0390   0.5673   0.9999
   5.000   0.7570   0.02392   0.01450  -0.0387   0.5610   0.9999
   5.100   0.7674   0.02404   0.01461  -0.0384   0.5552   0.9999
   5.200   0.7775   0.02421   0.01480  -0.0382   0.5488   0.9999
   5.300   0.7876   0.02439   0.01500  -0.0379   0.5424   0.9999
   5.400   0.7980   0.02451   0.01512  -0.0376   0.5365   0.9999
   5.500   0.8083   0.02467   0.01529  -0.0373   0.5304   0.9999
   5.600   0.8182   0.02487   0.01553  -0.0371   0.5238   0.9999
   5.700   0.8286   0.02502   0.01567  -0.0368   0.5178   0.9999
   5.800   0.8390   0.02515   0.01581  -0.0365   0.5120   0.9999
   5.900   0.8488   0.02539   0.01609  -0.0363   0.5051   0.9999
   6.000   0.8591   0.02554   0.01625  -0.0360   0.4991   0.9999
   6.100   0.8696   0.02568   0.01638  -0.0357   0.4932   0.9999
   6.200   0.8792   0.02593   0.01669  -0.0355   0.4863   0.9999
   6.300   0.8895   0.02610   0.01687  -0.0352   0.4802   0.9999
   6.400   0.8998   0.02625   0.01702  -0.0349   0.4742   0.9999
   6.500   0.9094   0.02650   0.01733  -0.0347   0.4673   0.9999
   6.600   0.9197   0.02667   0.01750  -0.0344   0.4612   0.9999
   6.700   0.9298   0.02686   0.01771  -0.0341   0.4549   0.9999
   6.800   0.9395   0.02710   0.01799  -0.0339   0.4481   0.9999
   6.900   0.9498   0.02725   0.01814  -0.0336   0.4421   0.9999
   7.000   0.9594   0.02750   0.01844  -0.0333   0.4353   0.9999
   7.100   0.9693   0.02770   0.01866  -0.0330   0.4288   0.9999
   7.200   0.9798   0.02785   0.01879  -0.0327   0.4227   0.9999
   7.300   0.9889   0.02815   0.01917  -0.0325   0.4156   0.9999
   7.400   0.9991   0.02831   0.01933  -0.0322   0.4092   0.9999
   7.500   1.0085   0.02858   0.01965  -0.0319   0.4023   0.9999
   7.600   1.0183   0.02878   0.01987  -0.0316   0.3957   0.9999
   7.700   1.0280   0.02900   0.02011  -0.0313   0.3890   0.9999
   7.800   1.0374   0.02925   0.02040  -0.0309   0.3821   0.9999
   7.900   1.0475   0.02942   0.02057  -0.0306   0.3755   0.9999
   8.000   1.0563   0.02972   0.02092  -0.0303   0.3683   0.9999
   8.100   1.0665   0.02988   0.02107  -0.0300   0.3617   0.9999
   8.200   1.0750   0.03018   0.02145  -0.0296   0.3542   0.9999
   8.300   1.0848   0.03037   0.02163  -0.0293   0.3474   0.9999
   8.400   1.0935   0.03065   0.02197  -0.0289   0.3400   0.9999
   8.500   1.1027   0.03089   0.02222  -0.0285   0.3327   0.9999
   8.600   1.1118   0.03112   0.02246  -0.0281   0.3254   0.9999
   8.700   1.1202   0.03141   0.02281  -0.0277   0.3178   0.9999
   8.800   1.1300   0.03157   0.02293  -0.0274   0.3106   0.9999
   8.900   1.1377   0.03191   0.02334  -0.0269   0.3027   0.9999
   9.000   1.1460   0.03219   0.02365  -0.0265   0.2950   0.9999
   9.100   1.1553   0.03237   0.02379  -0.0261   0.2874   0.9999
   9.200   1.1626   0.03273   0.02421  -0.0256   0.2794   0.9999
   9.300   1.1702   0.03305   0.02457  -0.0251   0.2714   0.9999
   9.400   1.1782   0.03332   0.02483  -0.0246   0.2635   0.9999
   9.500   1.1864   0.03358   0.02508  -0.0241   0.2555   0.9999
   9.600   1.1929   0.03397   0.02552  -0.0235   0.2472   0.9999
   9.700   1.1995   0.03434   0.02592  -0.0229   0.2389   0.9999
   9.800   1.2061   0.03469   0.02628  -0.0223   0.2306   0.9999
   9.900   1.2127   0.03503   0.02661  -0.0217   0.2223   0.9999
  10.000   1.2192   0.03538   0.02692  -0.0211   0.2140   0.9999
  10.100   1.2247   0.03578   0.02734  -0.0204   0.2056   0.9999
  10.200   1.2292   0.03626   0.02785  -0.0196   0.1973   0.9999
  10.300   1.2336   0.03676   0.02837  -0.0189   0.1892   0.9999
  10.400   1.2379   0.03725   0.02886  -0.0181   0.1812   0.9999
  10.500   1.2425   0.03774   0.02931  -0.0173   0.1733   0.9999
  10.600   1.2464   0.03829   0.02985  -0.0165   0.1656   0.9999
  10.700   1.2487   0.03897   0.03058  -0.0156   0.1583   0.9999
  10.800   1.2523   0.03958   0.03115  -0.0148   0.1512   0.9999
  10.900   1.2546   0.04028   0.03187  -0.0139   0.1445   0.9999
  11.000   1.2573   0.04101   0.03259  -0.0130   0.1380   0.9999
  11.100   1.2591   0.04179   0.03340  -0.0120   0.1320   0.9999
  11.200   1.2630   0.04251   0.03402  -0.0113   0.1260   0.9999
  11.300   1.2637   0.04343   0.03502  -0.0103   0.1208   0.9999
  11.400   1.2652   0.04433   0.03595  -0.0094   0.1158   0.9999
  11.500   1.2671   0.04522   0.03686  -0.0085   0.1111   0.9999
  11.600   1.2690   0.04615   0.03779  -0.0077   0.1068   0.9999
  11.700   1.2708   0.04711   0.03879  -0.0068   0.1028   0.9999
  11.800   1.2721   0.04810   0.03980  -0.0059   0.0991   0.9999
  11.900   1.2738   0.04909   0.04082  -0.0051   0.0956   0.9999
  12.000   1.2766   0.05006   0.04178  -0.0044   0.0922   0.9999
  12.200   1.2751   0.05220   0.04407  -0.0024   0.0872   0.9999
  12.400   1.2741   0.05438   0.04637  -0.0006   0.0828   0.9999
  12.500   1.2772   0.05542   0.04740  -0.0000   0.0803   0.9999
  12.600   1.2719   0.05673   0.04886   0.0011   0.0791   0.9999
  12.900   1.2775   0.06012   0.05230   0.0026   0.0731   0.9999
  13.000   1.2691   0.06167   0.05403   0.0035   0.0726   0.9999
  13.100   1.2617   0.06328   0.05580   0.0041   0.0721   0.9999
  13.200   1.2553   0.06488   0.05753   0.0046   0.0714   0.9999
  13.500   1.2454   0.06947   0.06235   0.0053   0.0686   0.9999
  13.600   1.2369   0.07141   0.06442   0.0053   0.0684   0.9999
  13.700   1.2284   0.07341   0.06656   0.0052   0.0682   0.9999
  13.800   1.2197   0.07551   0.06878   0.0049   0.0680   0.9999
  13.900   1.2108   0.07770   0.07108   0.0044   0.0679   0.9999
  14.000   1.2014   0.08002   0.07352   0.0038   0.0679   0.9999
  14.100   1.1914   0.08248   0.07609   0.0030   0.0679   0.9999
  14.200   1.1810   0.08508   0.07880   0.0021   0.0681   0.9999
  14.300   1.1703   0.08781   0.08163   0.0009   0.0683   0.9999
  14.400   1.1598   0.09062   0.08453  -0.0003   0.0685   0.9999
  14.500   1.1493   0.09351   0.08752  -0.0017   0.0687   0.9999
  14.600   1.1390   0.09649   0.09057  -0.0032   0.0689   0.9999
  14.700   1.1291   0.09952   0.09368  -0.0047   0.0692   0.9999
  14.800   1.1194   0.10260   0.09682  -0.0063   0.0694   0.9999
  20.000   0.6651   0.22991   0.22448  -0.0587   0.1111   0.9999
  19.900   0.6648   0.22884   0.22341  -0.0582   0.1127   0.9999
  19.700   0.6626   0.22640   0.22095  -0.0575   0.1152   0.9999
  19.600   0.6625   0.22533   0.21988  -0.0570   0.1169   0.9999
  19.400   0.6600   0.22289   0.21742  -0.0563   0.1197   0.9999
  19.300   0.6607   0.22190   0.21643  -0.0556   0.1214   0.9999
  19.200   0.6605   0.22069   0.21522  -0.0552   0.1224   0.9999
  19.100   0.6576   0.21942   0.21393  -0.0550   0.1244   0.9999
  19.000   0.6596   0.21853   0.21304  -0.0543   0.1259   0.9999
  18.900   0.6568   0.21711   0.21161  -0.0541   0.1274   0.9999
  18.800   0.6560   0.21603   0.21053  -0.0538   0.1294   0.9999
  18.700   0.6582   0.21508   0.20958  -0.0530   0.1306   0.9999
  18.600   0.6539   0.21365   0.20812  -0.0531   0.1327   0.9999
  18.500   0.6559   0.21278   0.20725  -0.0524   0.1344   0.9999
  18.400   0.6532   0.21137   0.20584  -0.0522   0.1360   0.9999
  18.300   0.6530   0.21035   0.20480  -0.0518   0.1382   0.9999
  18.200   0.6538   0.20927   0.20372  -0.0512   0.1395   0.9999
  18.100   0.6509   0.20799   0.20242  -0.0511   0.1419   0.9999
  18.000   0.6545   0.20725   0.20169  -0.0503   0.1433   0.9999
  17.900   0.6495   0.20572   0.20014  -0.0504   0.1455   0.9999
  17.800   0.6520   0.20491   0.19932  -0.0498   0.1474   0.9999
  17.700   0.6487   0.20347   0.19787  -0.0497   0.1493   0.9999
  17.600   0.6499   0.20257   0.19697  -0.0492   0.1515   0.9999
  17.500   0.6483   0.20129   0.19568  -0.0489   0.1532   0.9999
  17.400   0.6483   0.20030   0.19467  -0.0485   0.1556   0.9999
  17.300   0.6480   0.19912   0.19349  -0.0482   0.1573   0.9999
  17.200   0.6470   0.19805   0.19241  -0.0479   0.1599   0.9999
  17.100   0.6480   0.19700   0.19135  -0.0474   0.1614   0.9999
  17.000   0.6460   0.19584   0.19018  -0.0473   0.1641   0.9999
  16.800   0.6454   0.19369   0.18800  -0.0466   0.1685   0.9999
  16.600   0.6450   0.19156   0.18585  -0.0460   0.1730   0.9999
  16.500   0.6459   0.19049   0.18478  -0.0456   0.1748   0.9999
  16.400   0.6450   0.18943   0.18370  -0.0454   0.1776   0.9999
  16.300   0.6445   0.18828   0.18254  -0.0451   0.1796   0.9999
  16.200   0.6454   0.18739   0.18164  -0.0447   0.1823   0.9999
  16.100   0.6433   0.18613   0.18036  -0.0446   0.1846   0.9999
  16.000   0.6467   0.18543   0.17966  -0.0441   0.1870   0.9999
  15.900   0.6429   0.18406   0.17826  -0.0441   0.1898   0.9999
  15.800   0.6487   0.18351   0.17771  -0.0434   0.1918   0.9999
  15.700   0.6436   0.18207   0.17625  -0.0435   0.1951   0.9999
  15.500   0.6457   0.18020   0.17435  -0.0429   0.2002   0.9999
  15.400   0.6433   0.17896   0.17309  -0.0429   0.2029   0.9999
  15.300   0.6490   0.17842   0.17256  -0.0423   0.2051   0.9999
  15.200   0.6445   0.17706   0.17117  -0.0424   0.2086   0.9999
  15.100   0.6456   0.17608   0.17017  -0.0422   0.2109   0.9999
  15.000   0.6481   0.17534   0.16942  -0.0419   0.2139   0.9999
  14.900   0.6448   0.17409   0.16815  -0.0419   0.2170   0.9999