  
       XFOIL         Version 6.99
  
 Calculated polar for: s1075                                           
  
 1 1 Reynolds number fixed          Mach number fixed         
  
 xtrf =   1.000 (top)        1.000 (bottom)  
 Mach =   0.000     Re =     0.010 e 6     Ncrit =   9.000
  
   alpha    CL        CD       CDp       CM     Top_Xtr  Bot_Xtr
  ------ -------- --------- --------- -------- -------- --------
   0.000  -0.0035   0.04146   0.01825  -0.0131   1.0001   0.9999
   0.100   0.0020   0.04169   0.01838  -0.0128   1.0001   0.9999
   0.200   0.0074   0.04193   0.01852  -0.0125   1.0001   0.9999
   0.300   0.0129   0.04218   0.01868  -0.0123   1.0001   0.9999
   0.400   0.0184   0.04244   0.01885  -0.0121   1.0001   0.9999
   0.500   0.0240   0.04271   0.01902  -0.0119   1.0001   0.9999
   0.600   0.0296   0.04299   0.01922  -0.0117   1.0001   0.9999
   0.700   0.0352   0.04328   0.01943  -0.0115   1.0001   0.9999
   0.800   0.0408   0.04359   0.01965  -0.0114   1.0001   0.9999
   0.900   0.0464   0.04390   0.01989  -0.0112   1.0001   0.9999
   1.000   0.0521   0.04422   0.02014  -0.0111   1.0001   0.9999
   1.100   0.0577   0.04455   0.02041  -0.0110   1.0001   0.9999
   1.200   0.0634   0.04489   0.02067  -0.0109   1.0001   0.9999
   1.300   0.0690   0.04524   0.02096  -0.0108   1.0001   0.9999
   1.400   0.0747   0.04561   0.02127  -0.0108   1.0001   0.9999
   1.500   0.0803   0.04598   0.02159  -0.0107   1.0001   0.9999
   1.600   0.0860   0.04636   0.02192  -0.0107   1.0001   0.9999
   1.700   0.0916   0.04676   0.02226  -0.0106   1.0001   0.9999
   1.800   0.0972   0.04716   0.02262  -0.0106   1.0001   0.9999
   1.900   0.1028   0.04758   0.02299  -0.0106   1.0001   0.9999
   2.000   0.1084   0.04801   0.02337  -0.0107   1.0001   0.9999
   2.100   0.1140   0.04844   0.02377  -0.0107   1.0001   0.9999
   2.200   0.1196   0.04889   0.02418  -0.0107   1.0001   0.9999
   2.300   0.1251   0.04935   0.02461  -0.0108   1.0001   0.9999
   2.400   0.1307   0.04982   0.02505  -0.0109   1.0001   0.9999
   2.500   0.1362   0.05030   0.02550  -0.0109   1.0001   0.9999
   2.600   0.1416   0.05079   0.02597  -0.0110   1.0001   0.9999
   2.700   0.1471   0.05130   0.02645  -0.0111   1.0001   0.9999
   2.800   0.1526   0.05181   0.02694  -0.0112   1.0001   0.9999
   2.900   0.1580   0.05233   0.02745  -0.0114   1.0001   0.9999
   3.000   0.1634   0.05287   0.02796  -0.0115   1.0001   0.9999
   3.100   0.1687   0.05342   0.02850  -0.0116   1.0001   0.9999
   3.200   0.1741   0.05398   0.02904  -0.0118   1.0001   0.9999
   3.300   0.1794   0.05455   0.02961  -0.0120   1.0001   0.9999
   3.400   0.1848   0.05513   0.03018  -0.0121   1.0001   0.9999
   3.500   0.1900   0.05572   0.03077  -0.0123   1.0001   0.9999
   3.600   0.1953   0.05632   0.03137  -0.0125   1.0001   0.9999
   3.700   0.2005   0.05694   0.03199  -0.0127   1.0001   0.9999
   3.800   0.2058   0.05757   0.03262  -0.0129   1.0001   0.9999
   3.900   0.2109   0.05820   0.03326  -0.0131   1.0001   0.9999
   4.000   0.2161   0.05885   0.03391  -0.0134   1.0001   0.9999
   4.100   0.2212   0.05951   0.03458  -0.0136   1.0001   0.9999
   4.200   0.2263   0.06019   0.03526  -0.0139   1.0001   0.9999
   4.300   0.2314   0.06087   0.03595  -0.0141   1.0001   0.9999
   4.400   0.2364   0.06156   0.03667  -0.0144   1.0001   0.9999
   4.500   0.2414   0.06227   0.03739  -0.0146   1.0001   0.9999
   4.600   0.2464   0.06299   0.03812  -0.0149   1.0001   0.9999
   4.700   0.2513   0.06372   0.03887  -0.0152   1.0001   0.9999
   4.800   0.2563   0.06446   0.03963  -0.0155   1.0001   0.9999
   4.900   0.2611   0.06521   0.04040  -0.0158   1.0001   0.9999
   5.000   0.2660   0.06597   0.04118  -0.0161   1.0001   0.9999
   5.100   0.2708   0.06674   0.04198  -0.0164   1.0001   0.9999
   5.200   0.2756   0.06752   0.04279  -0.0167   1.0001   0.9999
   5.300   0.2804   0.06832   0.04363  -0.0171   1.0001   0.9999
   5.400   0.2851   0.06913   0.04446  -0.0174   1.0001   0.9999
   5.500   0.2898   0.06994   0.04531  -0.0177   1.0001   0.9999
   5.600   0.2945   0.07077   0.04617  -0.0181   1.0001   0.9999
   5.700   0.2991   0.07161   0.04704  -0.0184   1.0001   0.9999
   5.800   0.3037   0.07246   0.04792  -0.0188   1.0001   0.9999
   5.900   0.3083   0.07332   0.04882  -0.0191   1.0001   0.9999
   6.000   0.3129   0.07419   0.04973  -0.0195   1.0001   0.9999
   6.100   0.3174   0.07508   0.05065  -0.0199   1.0001   0.9999
   6.300   0.3264   0.07688   0.05255  -0.0206   1.0001   0.9999
   6.400   0.3308   0.07780   0.05351  -0.0210   1.0001   0.9999
   6.500   0.3353   0.07873   0.05448  -0.0214   1.0001   0.9999
   6.600   0.3397   0.07966   0.05547  -0.0218   1.0001   0.9999
   6.700   0.3440   0.08061   0.05646  -0.0222   1.0001   0.9999
   6.800   0.3484   0.08157   0.05747  -0.0226   1.0001   0.9999
   6.900   0.3527   0.08254   0.05849  -0.0230   1.0001   0.9999
   7.000   0.3570   0.08352   0.05951  -0.0234   1.0001   0.9999
   7.100   0.3612   0.08451   0.06056  -0.0239   1.0001   0.9999
   7.200   0.3655   0.08551   0.06163  -0.0243   1.0001   0.9999
   7.300   0.3697   0.08653   0.06269  -0.0247   1.0001   0.9999
   7.400   0.3739   0.08754   0.06376  -0.0252   1.0001   0.9999
   7.500   0.3780   0.08858   0.06485  -0.0256   1.0001   0.9999
   7.600   0.3821   0.08962   0.06594  -0.0260   1.0001   0.9999
   7.700   0.3863   0.09067   0.06705  -0.0265   1.0001   0.9999
   7.800   0.3903   0.09172   0.06816  -0.0269   1.0001   0.9999
   7.900   0.3944   0.09279   0.06929  -0.0274   1.0001   0.9999
   8.000   0.3985   0.09387   0.07042  -0.0279   1.0001   0.9999
   8.100   0.4025   0.09496   0.07157  -0.0283   1.0001   0.9999
   8.200   0.4065   0.09605   0.07272  -0.0288   1.0001   0.9999
   8.300   0.4105   0.09716   0.07391  -0.0293   1.0001   0.9999
   8.400   0.4144   0.09827   0.07509  -0.0298   1.0001   0.9999
   8.500   0.4184   0.09939   0.07627  -0.0302   1.0001   0.9999
   8.600   0.4223   0.10052   0.07746  -0.0307   1.0001   0.9999
   8.700   0.4262   0.10166   0.07866  -0.0312   1.0001   0.9999
   8.800   0.4301   0.10281   0.07987  -0.0317   1.0001   0.9999
   8.900   0.4340   0.10396   0.08109  -0.0322   1.0001   0.9999
   9.000   0.4378   0.10512   0.08232  -0.0327   1.0001   0.9999
   9.100   0.4417   0.10629   0.08355  -0.0333   1.0001   0.9999
   9.200   0.4455   0.10747   0.08479  -0.0338   1.0001   0.9999
   9.300   0.4493   0.10865   0.08604  -0.0343   1.0001   0.9999
   9.400   0.4531   0.10984   0.08732  -0.0348   1.0001   0.9999
   9.500   0.4569   0.11104   0.08859  -0.0354   1.0001   0.9999
   9.600   0.4607   0.11225   0.08986  -0.0359   1.0001   0.9999
   9.700   0.4645   0.11346   0.09114  -0.0364   1.0001   0.9999
   9.800   0.4683   0.11468   0.09243  -0.0370   1.0001   0.9999
   9.900   0.4721   0.11590   0.09372  -0.0376   1.0001   0.9999
  10.000   0.4758   0.11713   0.09502  -0.0381   1.0001   0.9999
  10.100   0.4796   0.11837   0.09632  -0.0387   1.0001   0.9999
  10.200   0.4833   0.11961   0.09764  -0.0393   1.0001   0.9999
  10.300   0.4871   0.12086   0.09895  -0.0398   1.0001   0.9999
  10.400   0.4908   0.12211   0.10028  -0.0404   1.0001   0.9999
  10.500   0.4945   0.12338   0.10161  -0.0410   1.0001   0.9999
  10.700   0.5020   0.12591   0.10431  -0.0422   1.0001   0.9999
  10.800   0.5058   0.12719   0.10566  -0.0428   1.0001   0.9999
  10.900   0.5095   0.12847   0.10701  -0.0434   1.0001   0.9999
  11.000   0.5132   0.12976   0.10837  -0.0441   1.0001   0.9999
  11.100   0.5170   0.13105   0.10973  -0.0447   1.0001   0.9999
  11.200   0.5207   0.13235   0.11110  -0.0453   1.0001   0.9999
  11.300   0.5244   0.13365   0.11247  -0.0460   1.0001   0.9999
  11.400   0.5282   0.13496   0.11385  -0.0466   1.0001   0.9999
  11.500   0.5319   0.13627   0.11524  -0.0473   1.0001   0.9999
  11.600   0.5356   0.13759   0.11662  -0.0479   1.0001   0.9999
  11.700   0.5394   0.13891   0.11802  -0.0486   1.0001   0.9999
  11.800   0.5432   0.14024   0.11942  -0.0493   1.0001   0.9999
  11.900   0.5469   0.14157   0.12082  -0.0499   1.0001   0.9999
  12.000   0.5507   0.14291   0.12223  -0.0506   1.0001   0.9999
  12.100   0.5544   0.14425   0.12367  -0.0513   1.0001   0.9999
  12.200   0.5582   0.14560   0.12509  -0.0520   1.0001   0.9999
  12.300   0.5620   0.14695   0.12651  -0.0527   1.0001   0.9999
  12.400   0.5657   0.14831   0.12794  -0.0534   1.0001   0.9999
  12.500   0.5695   0.14967   0.12937  -0.0541   1.0001   0.9999
  12.600   0.5733   0.15103   0.13080  -0.0548   1.0001   0.9999
  12.700   0.5771   0.15241   0.13224  -0.0556   1.0001   0.9999
  12.800   0.5809   0.15378   0.13368  -0.0563   1.0001   0.9999
  12.900   0.5847   0.15516   0.13513  -0.0570   1.0001   0.9999
  13.000   0.5885   0.15654   0.13658  -0.0578   1.0001   0.9999
  13.100   0.5923   0.15793   0.13804  -0.0585   1.0001   0.9999
  13.200   0.5961   0.15933   0.13950  -0.0593   1.0001   0.9999
  13.300   0.5999   0.16073   0.14097  -0.0600   1.0001   0.9999
  13.400   0.6037   0.16213   0.14244  -0.0608   1.0001   0.9999
  13.500   0.6076   0.16354   0.14391  -0.0616   1.0001   0.9999
  13.600   0.6114   0.16495   0.14542  -0.0624   1.0001   0.9999
  13.700   0.6152   0.16637   0.14691  -0.0631   1.0001   0.9999
  13.800   0.6191   0.16779   0.14839  -0.0639   1.0001   0.9999
  13.900   0.6229   0.16922   0.14989  -0.0647   1.0001   0.9999
  14.000   0.6268   0.17065   0.15138  -0.0655   1.0001   0.9999
  14.100   0.6307   0.17209   0.15288  -0.0663   1.0001   0.9999
  14.200   0.6345   0.17353   0.15439  -0.0671   1.0001   0.9999
  14.300   0.6384   0.17498   0.15590  -0.0679   1.0001   0.9999
  14.400   0.6423   0.17643   0.15741  -0.0688   1.0001   0.9999
  14.500   0.6462   0.17788   0.15893  -0.0696   1.0001   0.9999
  14.600   0.6500   0.17934   0.16045  -0.0704   1.0001   0.9999
  14.700   0.6539   0.18080   0.16198  -0.0712   1.0001   0.9999
  14.800   0.6578   0.18227   0.16350  -0.0721   1.0001   0.9999
  14.900   0.6617   0.18374   0.16504  -0.0729   1.0001   0.9999
  15.000   0.6656   0.18522   0.16657  -0.0737   1.0001   0.9999
  15.100   0.6696   0.18670   0.16811  -0.0746   1.0001   0.9999
  15.200   0.6735   0.18819   0.16966  -0.0754   1.0001   0.9999
  15.300   0.6774   0.18967   0.17120  -0.0763   1.0001   0.9999
  15.400   0.6813   0.19117   0.17278  -0.0771   1.0001   0.9999
  15.500   0.6873   0.19297   0.17467  -0.0786   0.9978   0.9999
  15.600   0.7036   0.19767   0.17952  -0.0828   0.9834   0.9999
  15.700   0.7170   0.20160   0.18356  -0.0861   0.9697   0.9999
  15.800   0.7264   0.20344   0.18551  -0.0883   0.9560   0.9999
  15.900   0.7372   0.20671   0.18889  -0.0908   0.9429   0.9999
  16.000   0.7473   0.20991   0.19217  -0.0931   0.9306   0.9999
  16.100   0.7538   0.21101   0.19334  -0.0944   0.9191   0.9999
  16.200   0.7605   0.21247   0.19487  -0.0957   0.9074   0.9999
  16.300   0.7675   0.21419   0.19667  -0.0971   0.8960   0.9999
  16.400   0.7745   0.21607   0.19861  -0.0984   0.8849   0.9999
  16.500   0.7812   0.21794   0.20054  -0.0997   0.8746   0.9999
  16.600   0.7877   0.21978   0.20244  -0.1009   0.8642   0.9999
  16.700   0.7941   0.22160   0.20435  -0.1020   0.8540   0.9999
  16.800   0.8004   0.22340   0.20621  -0.1031   0.8441   0.9999
  16.900   0.8065   0.22523   0.20809  -0.1041   0.8344   0.9999
  17.000   0.8127   0.22715   0.21006  -0.1052   0.8250   0.9999
  17.100   0.8192   0.22933   0.21229  -0.1063   0.8159   0.9999
  17.200   0.8260   0.23179   0.21481  -0.1074   0.8067   0.9999
  17.300   0.8331   0.23440   0.21747  -0.1086   0.7973   0.9999
  17.400   0.8370   0.23500   0.21812  -0.1091   0.7886   0.9999
  17.500   0.8407   0.23564   0.21878  -0.1097   0.7806   0.9999
  17.600   0.8457   0.23716   0.22034  -0.1104   0.7726   0.9999
  17.700   0.8519   0.23942   0.22265  -0.1114   0.7644   0.9999
  17.800   0.8593   0.24246   0.22573  -0.1126   0.7558   0.9999
  17.900   0.8625   0.24279   0.22610  -0.1130   0.7482   0.9999
  18.000   0.8662   0.24360   0.22693  -0.1136   0.7412   0.9999
  18.100   0.8723   0.24597   0.22934  -0.1145   0.7336   0.9999
  18.200   0.8799   0.24931   0.23273  -0.1157   0.7252   0.9999
  18.300   0.8815   0.24866   0.23210  -0.1159   0.7184   0.9999
  18.400   0.8861   0.25012   0.23358  -0.1165   0.7117   0.9999
  18.500   0.8932   0.25327   0.23680  -0.1176   0.7040   0.9999
  18.600   0.8964   0.25365   0.23721  -0.1181   0.6971   0.9999
  18.700   0.9002   0.25473   0.23831  -0.1187   0.6912   0.9999
  18.800   0.9077   0.25823   0.24185  -0.1198   0.6838   0.9999
  18.900   0.9097   0.25784   0.24148  -0.1201   0.6775   0.9999
  19.000   0.9145   0.25958   0.24324  -0.1208   0.6715   0.9999
  19.100   0.9221   0.26319   0.24691  -0.1219   0.6640   0.9999
  19.200   0.9228   0.26203   0.24574  -0.1220   0.6585   0.9999
  19.300   0.9291   0.26483   0.24858  -0.1230   0.6523   0.9999
  19.400   0.9329   0.26577   0.24955  -0.1235   0.6457   0.9999
  19.500   0.9366   0.26683   0.25062  -0.1241   0.6406   0.9999
  19.600   0.9435   0.27005   0.25389  -0.1251   0.6338   0.9999
  19.700   0.9448   0.26936   0.25319  -0.1254   0.6290   0.9999
  19.800   0.9524   0.27331   0.25717  -0.1265   0.6227   0.9999
  19.900   0.9534   0.27218   0.25605  -0.1268   0.6176   0.9999
  20.000   0.9600   0.27544   0.25934  -0.1277   0.6119   0.9999
