  
       XFOIL         Version 6.99
  
 Calculated polar for: s1075                                           
  
 1 1 Reynolds number fixed          Mach number fixed         
  
 xtrf =   1.000 (top)        1.000 (bottom)  
 Mach =   0.000     Re =     0.100 e 6     Ncrit =   9.000
  
   alpha    CL        CD       CDp       CM     Top_Xtr  Bot_Xtr
  ------ -------- --------- --------- -------- -------- --------
   0.000   0.2469   0.01464   0.00719  -0.0480   0.8199   0.9999
   0.100   0.2557   0.01469   0.00720  -0.0475   0.8131   0.9999
   0.200   0.2643   0.01471   0.00715  -0.0468   0.8078   0.9999
   0.300   0.2735   0.01478   0.00718  -0.0464   0.8005   0.9999
   0.400   0.2826   0.01483   0.00717  -0.0458   0.7944   0.9999
   0.500   0.2916   0.01487   0.00716  -0.0452   0.7885   0.9999
   0.600   0.3010   0.01493   0.00718  -0.0448   0.7817   0.9999
   0.700   0.3101   0.01496   0.00715  -0.0442   0.7767   0.9999
   0.800   0.3197   0.01503   0.00719  -0.0439   0.7696   0.9999
   0.900   0.3292   0.01509   0.00720  -0.0434   0.7636   0.9999
   1.000   0.3387   0.01514   0.00720  -0.0430   0.7578   0.9999
   1.100   0.3485   0.01521   0.00724  -0.0427   0.7512   0.9999
   1.200   0.3580   0.01525   0.00722  -0.0421   0.7463   0.9999
   1.300   0.3680   0.01533   0.00728  -0.0419   0.7393   0.9999
   1.400   0.3778   0.01538   0.00729  -0.0415   0.7337   0.9999
   1.500   0.3878   0.01545   0.00731  -0.0411   0.7275   0.9999
   1.600   0.3978   0.01552   0.00735  -0.0408   0.7213   0.9999
   1.700   0.4077   0.01556   0.00735  -0.0404   0.7160   0.9999
   1.800   0.4180   0.01565   0.00742  -0.0402   0.7093   0.9999
   1.900   0.4279   0.01569   0.00741  -0.0398   0.7045   0.9999
   2.000   0.4382   0.01578   0.00748  -0.0396   0.6976   0.9999
   2.100   0.4485   0.01585   0.00751  -0.0393   0.6918   0.9999
   2.200   0.4587   0.01591   0.00754  -0.0390   0.6860   0.9999
   2.300   0.4690   0.01599   0.00761  -0.0388   0.6797   0.9999
   2.400   0.4793   0.01604   0.00761  -0.0385   0.6746   0.9999
   2.500   0.4897   0.01613   0.00770  -0.0383   0.6678   0.9999
   2.600   0.5001   0.01619   0.00771  -0.0380   0.6626   0.9999
   2.700   0.5105   0.01627   0.00778  -0.0379   0.6562   0.9999
   2.800   0.5210   0.01636   0.00785  -0.0377   0.6502   0.9999
   2.900   0.5314   0.01642   0.00788  -0.0374   0.6447   0.9999
   3.000   0.5419   0.01652   0.00797  -0.0373   0.6381   0.9999
   3.100   0.5524   0.01657   0.00797  -0.0369   0.6334   0.9999
   3.200   0.5630   0.01668   0.00809  -0.0368   0.6264   0.9999
   3.300   0.5735   0.01676   0.00814  -0.0366   0.6208   0.9999
   3.400   0.5840   0.01684   0.00820  -0.0364   0.6147   0.9999
   3.500   0.5946   0.01694   0.00831  -0.0363   0.6085   0.9999
   3.600   0.6052   0.01701   0.00833  -0.0360   0.6033   0.9999
   3.700   0.6158   0.01712   0.00846  -0.0360   0.5965   0.9999
   3.800   0.6264   0.01720   0.00849  -0.0357   0.5913   0.9999
   3.900   0.6370   0.01731   0.00860  -0.0356   0.5847   0.9999
   4.000   0.6476   0.01741   0.00870  -0.0355   0.5787   0.9999
   4.100   0.6582   0.01750   0.00876  -0.0353   0.5732   0.9999
   4.200   0.6688   0.01762   0.00890  -0.0352   0.5665   0.9999
   4.300   0.6795   0.01770   0.00892  -0.0349   0.5617   0.9999
   4.400   0.6900   0.01783   0.00908  -0.0349   0.5546   0.9999
   4.500   0.7007   0.01794   0.00918  -0.0347   0.5488   0.9999
   4.600   0.7113   0.01804   0.00927  -0.0345   0.5430   0.9999
   4.700   0.7219   0.01817   0.00942  -0.0344   0.5364   0.9999
   4.800   0.7326   0.01826   0.00946  -0.0342   0.5314   0.9999
   4.900   0.7431   0.01841   0.00965  -0.0342   0.5244   0.9999
   5.000   0.7537   0.01853   0.00975  -0.0340   0.5187   0.9999
   5.100   0.7643   0.01865   0.00986  -0.0339   0.5127   0.9999
   5.200   0.7748   0.01879   0.01003  -0.0338   0.5062   0.9999
   5.300   0.7856   0.01889   0.01009  -0.0336   0.5011   0.9999
   5.400   0.7959   0.01905   0.01030  -0.0335   0.4942   0.9999
   5.500   0.8065   0.01918   0.01041  -0.0334   0.4885   0.9999
   5.600   0.8171   0.01932   0.01055  -0.0332   0.4823   0.9999
   5.700   0.8275   0.01947   0.01073  -0.0331   0.4759   0.9999
   5.800   0.8382   0.01959   0.01080  -0.0329   0.4707   0.9999
   5.900   0.8484   0.01976   0.01103  -0.0328   0.4637   0.9999
   6.000   0.8590   0.01991   0.01117  -0.0327   0.4580   0.9999
   6.100   0.8694   0.02005   0.01132  -0.0326   0.4518   0.9999
   6.200   0.8797   0.02023   0.01153  -0.0324   0.4453   0.9999
   6.300   0.8904   0.02036   0.01160  -0.0323   0.4401   0.9999
   6.400   0.9004   0.02054   0.01185  -0.0321   0.4330   0.9999
   6.500   0.9108   0.02071   0.01202  -0.0320   0.4271   0.9999
   6.600   0.9212   0.02086   0.01216  -0.0318   0.4210   0.9999
   6.700   0.9312   0.02104   0.01241  -0.0317   0.4143   0.9999
   6.800   0.9418   0.02119   0.01251  -0.0315   0.4088   0.9999
   6.900   0.9517   0.02138   0.01275  -0.0314   0.4019   0.9999
   7.000   0.9617   0.02157   0.01296  -0.0312   0.3955   0.9999
   7.100   0.9722   0.02172   0.01307  -0.0311   0.3898   0.9999
   7.200   0.9819   0.02193   0.01335  -0.0309   0.3827   0.9999
   7.300   0.9919   0.02211   0.01354  -0.0307   0.3766   0.9999
   7.400   1.0020   0.02228   0.01370  -0.0305   0.3703   0.9999
   7.500   1.0116   0.02250   0.01399  -0.0303   0.3634   0.9999
   7.600   1.0217   0.02267   0.01415  -0.0301   0.3574   0.9999
   7.700   1.0314   0.02287   0.01437  -0.0299   0.3507   0.9999
   7.800   1.0408   0.02309   0.01464  -0.0297   0.3438   0.9999
   7.900   1.0508   0.02327   0.01479  -0.0295   0.3377   0.9999
   8.000   1.0602   0.02348   0.01504  -0.0293   0.3307   0.9999
   8.100   1.0694   0.02371   0.01532  -0.0290   0.3237   0.9999
   8.200   1.0790   0.02391   0.01550  -0.0288   0.3173   0.9999
   8.300   1.0882   0.02412   0.01574  -0.0285   0.3103   0.9999
   8.400   1.0970   0.02436   0.01604  -0.0282   0.3031   0.9999
   8.500   1.1062   0.02458   0.01626  -0.0280   0.2963   0.9999
   8.600   1.1154   0.02479   0.01645  -0.0277   0.2896   0.9999
   8.700   1.1237   0.02505   0.01679  -0.0273   0.2820   0.9999
   8.800   1.1322   0.02530   0.01707  -0.0270   0.2748   0.9999
   8.900   1.1411   0.02554   0.01727  -0.0267   0.2681   0.9999
   9.000   1.1492   0.02580   0.01757  -0.0263   0.2605   0.9999
   9.100   1.1570   0.02609   0.01794  -0.0259   0.2529   0.9999
   9.200   1.1649   0.02637   0.01824  -0.0255   0.2455   0.9999
   9.300   1.1729   0.02664   0.01848  -0.0251   0.2383   0.9999
   9.400   1.1802   0.02693   0.01879  -0.0247   0.2305   0.9999
   9.500   1.1869   0.02726   0.01918  -0.0242   0.2224   0.9999
   9.600   1.1935   0.02759   0.01955  -0.0236   0.2145   0.9999
   9.700   1.2000   0.02792   0.01989  -0.0231   0.2066   0.9999
   9.800   1.2064   0.02826   0.02020  -0.0226   0.1989   0.9999
   9.900   1.2122   0.02862   0.02055  -0.0220   0.1910   0.9999
  10.000   1.2172   0.02903   0.02101  -0.0213   0.1827   0.9999
  10.100   1.2220   0.02947   0.02150  -0.0206   0.1747   0.9999
  10.200   1.2265   0.02993   0.02198  -0.0199   0.1669   0.9999
  10.300   1.2308   0.03042   0.02245  -0.0191   0.1593   0.9999
  10.400   1.2347   0.03092   0.02289  -0.0184   0.1522   0.9999
  10.500   1.2378   0.03148   0.02350  -0.0175   0.1446   0.9999
  10.600   1.2405   0.03209   0.02415  -0.0166   0.1373   0.9999
  10.700   1.2429   0.03273   0.02478  -0.0157   0.1306   0.9999
  10.800   1.2454   0.03337   0.02532  -0.0149   0.1247   0.9999
  10.900   1.2465   0.03407   0.02611  -0.0138   0.1181   0.9999
  11.000   1.2476   0.03481   0.02686  -0.0128   0.1124   0.9999
  11.100   1.2487   0.03552   0.02750  -0.0118   0.1073   0.9999
  11.200   1.2486   0.03633   0.02839  -0.0106   0.1020   0.9999
  11.300   1.2491   0.03706   0.02899  -0.0096   0.0979   0.9999
  11.400   1.2472   0.03788   0.02996  -0.0082   0.0936   0.9999
  11.500   1.2473   0.03866   0.03064  -0.0072   0.0899   0.9999
  11.600   1.2465   0.03960   0.03167  -0.0061   0.0862   0.9999
  11.700   1.2461   0.04045   0.03252  -0.0052   0.0827   0.9999
  11.800   1.2472   0.04139   0.03338  -0.0045   0.0794   0.9999
  11.900   1.2457   0.04238   0.03452  -0.0036   0.0764   0.9999
  12.000   1.2467   0.04325   0.03533  -0.0030   0.0735   0.9999
  12.100   1.2479   0.04429   0.03637  -0.0023   0.0707   0.9999
  12.200   1.2465   0.04536   0.03756  -0.0017   0.0683   0.9999
  12.300   1.2470   0.04629   0.03848  -0.0012   0.0659   0.9999
  12.400   1.2506   0.04727   0.03935  -0.0007   0.0634   0.9999
  12.500   1.2485   0.04848   0.04074  -0.0001   0.0616   0.9999
  12.600   1.2477   0.04960   0.04194   0.0003   0.0597   0.9999
  12.700   1.2490   0.05054   0.04285   0.0007   0.0578   0.9999
  12.800   1.2536   0.05157   0.04378   0.0012   0.0556   0.9999
  12.900   1.2507   0.05292   0.04530   0.0015   0.0544   0.9999
  13.000   1.2492   0.05421   0.04671   0.0019   0.0531   0.9999
  13.100   1.2486   0.05541   0.04798   0.0021   0.0518   0.9999
  13.200   1.2500   0.05645   0.04902   0.0024   0.0504   0.9999
  13.300   1.2580   0.05741   0.04983   0.0029   0.0485   0.9999
  13.400   1.2535   0.05895   0.05155   0.0031   0.0479   0.9999
  13.500   1.2498   0.06052   0.05327   0.0032   0.0472   0.9999
  13.600   1.2469   0.06210   0.05498   0.0033   0.0465   0.9999
  13.700   1.2445   0.06364   0.05662   0.0033   0.0457   0.9999
  13.800   1.2430   0.06509   0.05816   0.0034   0.0450   0.9999
  13.900   1.2414   0.06653   0.05966   0.0034   0.0442   0.9999
  14.000   1.2409   0.06785   0.06101   0.0034   0.0434   0.9999
  14.100   1.2540   0.06851   0.06145   0.0042   0.0417   0.9999
  14.200   1.2472   0.07038   0.06347   0.0040   0.0416   0.9999
  14.300   1.2404   0.07234   0.06557   0.0036   0.0414   0.9999
  14.400   1.2335   0.07436   0.06773   0.0031   0.0412   0.9999
  14.500   1.2268   0.07645   0.06995   0.0025   0.0410   0.9999
  14.600   1.2197   0.07863   0.07225   0.0019   0.0409   0.9999
  14.700   1.2124   0.08087   0.07462   0.0011   0.0408   0.9999
  14.800   1.2049   0.08321   0.07707   0.0003   0.0407   0.9999
  14.900   1.1973   0.08560   0.07957  -0.0007   0.0406   0.9999
  15.000   1.1895   0.08809   0.08217  -0.0017   0.0405   0.9999
  15.100   1.1815   0.09065   0.08483  -0.0029   0.0405   0.9999
  15.200   1.1733   0.09328   0.08757  -0.0041   0.0405   0.9999
  15.300   1.1649   0.09602   0.09040  -0.0055   0.0405   0.9999
  15.400   1.1565   0.09882   0.09330  -0.0070   0.0406   0.9999
  15.500   1.1478   0.10173   0.09629  -0.0085   0.0406   0.9999
  15.600   1.1390   0.10475   0.09940  -0.0102   0.0407   0.9999
  15.700   1.1306   0.10781   0.10254  -0.0120   0.0408   0.9999
  15.800   1.1219   0.11100   0.10581  -0.0139   0.0410   0.9999
  15.900   1.1130   0.11432   0.10919  -0.0159   0.0411   0.9999
  16.000   1.1046   0.11763   0.11257  -0.0180   0.0412   0.9999
  16.100   1.0961   0.12105   0.11606  -0.0201   0.0414   0.9999
  16.200   1.0879   0.12451   0.11957  -0.0223   0.0415   0.9999
  16.300   1.0797   0.12805   0.12316  -0.0245   0.0416   0.9999
