  
       XFOIL         Version 6.99
  
 Calculated polar for: s1075                                           
  
 1 1 Reynolds number fixed          Mach number fixed         
  
 xtrf =   1.000 (top)        1.000 (bottom)  
 Mach =   0.000     Re =     1.000 e 6     Ncrit =   9.000
  
   alpha    CL        CD       CDp       CM     Top_Xtr  Bot_Xtr
  ------ -------- --------- --------- -------- -------- --------
 -10.000  -0.9190   0.02385   0.01951  -0.0260   1.0001   0.0060
  -9.900  -0.9106   0.02336   0.01896  -0.0258   1.0001   0.0061
  -9.800  -0.9016   0.02296   0.01849  -0.0256   1.0001   0.0061
  -9.700  -0.8961   0.02182   0.01722  -0.0251   1.0001   0.0062
  -9.600  -0.8892   0.02093   0.01625  -0.0247   1.0001   0.0062
  -9.500  -0.8818   0.02016   0.01540  -0.0244   1.0001   0.0063
  -9.400  -0.8735   0.01954   0.01473  -0.0242   1.0001   0.0063
  -9.300  -0.8645   0.01907   0.01421  -0.0240   1.0001   0.0064
  -9.200  -0.8552   0.01865   0.01376  -0.0239   1.0001   0.0065
  -9.100  -0.8455   0.01829   0.01338  -0.0238   1.0001   0.0066
  -9.000  -0.8357   0.01797   0.01302  -0.0237   1.0001   0.0066
  -8.900  -0.8257   0.01764   0.01267  -0.0236   1.0001   0.0067
  -8.800  -0.8157   0.01734   0.01233  -0.0235   1.0001   0.0068
  -8.700  -0.8054   0.01708   0.01205  -0.0235   1.0001   0.0069
  -8.600  -0.7952   0.01679   0.01173  -0.0234   1.0001   0.0070
  -8.500  -0.7849   0.01652   0.01143  -0.0234   1.0001   0.0071
  -8.400  -0.7745   0.01626   0.01115  -0.0233   1.0001   0.0072
  -8.300  -0.7641   0.01600   0.01085  -0.0233   1.0001   0.0074
  -8.200  -0.7536   0.01574   0.01057  -0.0232   1.0001   0.0075
  -8.100  -0.7431   0.01549   0.01028  -0.0232   1.0001   0.0076
  -8.000  -0.7325   0.01523   0.01000  -0.0232   1.0001   0.0077
  -7.900  -0.7218   0.01500   0.00973  -0.0231   1.0001   0.0078
  -7.800  -0.7111   0.01476   0.00947  -0.0231   1.0001   0.0079
  -7.700  -0.7003   0.01456   0.00924  -0.0231   1.0001   0.0079
  -7.600  -0.6901   0.01418   0.00882  -0.0230   1.0001   0.0080
  -7.500  -0.6804   0.01367   0.00827  -0.0229   1.0001   0.0083
  -7.400  -0.6698   0.01337   0.00795  -0.0229   1.0001   0.0084
  -7.300  -0.6590   0.01314   0.00771  -0.0229   1.0001   0.0086
  -7.200  -0.6481   0.01294   0.00750  -0.0230   1.0001   0.0088
  -7.100  -0.6371   0.01275   0.00730  -0.0230   1.0001   0.0089
  -7.000  -0.6260   0.01257   0.00710  -0.0230   1.0001   0.0091
  -6.900  -0.6124   0.01240   0.00691  -0.0236   0.9928   0.0094
  -6.800  -0.5990   0.01222   0.00671  -0.0242   0.9849   0.0096
  -6.700  -0.5864   0.01207   0.00653  -0.0245   0.9755   0.0098
  -6.600  -0.5748   0.01194   0.00638  -0.0246   0.9647   0.0101
  -6.500  -0.5646   0.01182   0.00622  -0.0243   0.9529   0.0103
  -6.400  -0.5558   0.01158   0.00594  -0.0237   0.9411   0.0107
  -6.300  -0.5466   0.01145   0.00578  -0.0233   0.9301   0.0111
  -6.200  -0.5369   0.01136   0.00566  -0.0229   0.9201   0.0114
  -6.000  -0.5166   0.01120   0.00541  -0.0224   0.9019   0.0124
  -5.900  -0.5060   0.01113   0.00529  -0.0222   0.8935   0.0128
  -5.800  -0.4957   0.01092   0.00505  -0.0220   0.8856   0.0136
  -5.700  -0.4850   0.01081   0.00491  -0.0219   0.8782   0.0144
  -5.600  -0.4741   0.01072   0.00478  -0.0218   0.8708   0.0153
  -5.500  -0.4632   0.01057   0.00460  -0.0217   0.8636   0.0165
  -5.400  -0.4523   0.01044   0.00445  -0.0216   0.8570   0.0180
  -5.300  -0.4412   0.01035   0.00432  -0.0216   0.8504   0.0196
  -5.200  -0.4302   0.01020   0.00417  -0.0216   0.8439   0.0217
  -5.100  -0.4190   0.01012   0.00405  -0.0215   0.8379   0.0237
  -5.000  -0.4078   0.00999   0.00392  -0.0216   0.8315   0.0263
  -4.900  -0.3966   0.00989   0.00380  -0.0216   0.8257   0.0295
  -4.800  -0.3854   0.00978   0.00369  -0.0216   0.8198   0.0334
  -4.700  -0.3742   0.00966   0.00358  -0.0216   0.8140   0.0396
  -4.600  -0.3630   0.00954   0.00347  -0.0216   0.8084   0.0472
  -4.500  -0.3516   0.00942   0.00338  -0.0217   0.8028   0.0550
  -4.300  -0.3290   0.00921   0.00320  -0.0218   0.7919   0.0712
  -4.200  -0.3176   0.00912   0.00311  -0.0219   0.7868   0.0804
  -4.100  -0.3062   0.00902   0.00303  -0.0220   0.7813   0.0893
  -4.000  -0.2948   0.00892   0.00296  -0.0220   0.7764   0.0996
  -3.900  -0.2834   0.00883   0.00288  -0.0221   0.7710   0.1100
  -3.800  -0.2720   0.00873   0.00281  -0.0222   0.7662   0.1216
  -3.700  -0.2606   0.00862   0.00274  -0.0223   0.7610   0.1350
  -3.600  -0.2492   0.00853   0.00268  -0.0224   0.7563   0.1476
  -3.500  -0.2377   0.00842   0.00261  -0.0225   0.7511   0.1625
  -3.400  -0.2262   0.00833   0.00255  -0.0226   0.7464   0.1763
  -3.300  -0.2147   0.00824   0.00249  -0.0227   0.7415   0.1904
  -3.200  -0.2032   0.00816   0.00244  -0.0228   0.7366   0.2032
  -3.100  -0.1916   0.00808   0.00239  -0.0229   0.7318   0.2160
  -3.000  -0.1801   0.00801   0.00234  -0.0230   0.7269   0.2289
  -2.900  -0.1686   0.00792   0.00229  -0.0231   0.7221   0.2443
  -2.800  -0.1570   0.00784   0.00225  -0.0232   0.7171   0.2608
  -2.700  -0.1455   0.00775   0.00220  -0.0233   0.7124   0.2794
  -2.600  -0.1340   0.00766   0.00216  -0.0235   0.7074   0.2980
  -2.500  -0.1225   0.00759   0.00212  -0.0236   0.7027   0.3147
  -2.400  -0.1109   0.00752   0.00209  -0.0237   0.6976   0.3305
  -2.300  -0.0993   0.00745   0.00205  -0.0238   0.6929   0.3473
  -2.200  -0.0877   0.00738   0.00202  -0.0239   0.6878   0.3646
  -2.100  -0.0761   0.00732   0.00199  -0.0240   0.6831   0.3809
  -2.000  -0.0645   0.00726   0.00196  -0.0242   0.6779   0.3952
  -1.900  -0.0529   0.00722   0.00193  -0.0243   0.6732   0.4090
  -1.800  -0.0412   0.00717   0.00191  -0.0244   0.6680   0.4230
  -1.700  -0.0296   0.00712   0.00188  -0.0245   0.6632   0.4377
  -1.600  -0.0180   0.00707   0.00186  -0.0246   0.6580   0.4542
  -1.500  -0.0064   0.00702   0.00184  -0.0247   0.6532   0.4721
  -1.400   0.0052   0.00696   0.00183  -0.0248   0.6480   0.4901
  -1.300   0.0168   0.00691   0.00181  -0.0249   0.6432   0.5076
  -1.200   0.0284   0.00686   0.00179  -0.0251   0.6380   0.5243
  -1.100   0.0400   0.00682   0.00178  -0.0252   0.6332   0.5409
  -1.000   0.0517   0.00677   0.00177  -0.0253   0.6280   0.5574
  -0.800   0.0749   0.00670   0.00175  -0.0255   0.6180   0.5894
  -0.600   0.0980   0.00662   0.00173  -0.0257   0.6079   0.6219
  -0.500   0.1096   0.00658   0.00173  -0.0258   0.6030   0.6393
  -0.400   0.1211   0.00654   0.00172  -0.0258   0.5979   0.6563
  -0.300   0.1326   0.00651   0.00172  -0.0259   0.5930   0.6743
  -0.100   0.1555   0.00642   0.00172  -0.0260   0.5830   0.7136
   0.000   0.1668   0.00636   0.00172  -0.0261   0.5779   0.7350
   0.100   0.1780   0.00632   0.00173  -0.0261   0.5729   0.7571
   0.200   0.1892   0.00626   0.00173  -0.0260   0.5679   0.7794
   0.300   0.2002   0.00620   0.00174  -0.0260   0.5629   0.8033
   0.400   0.2110   0.00614   0.00174  -0.0258   0.5579   0.8282
   0.500   0.2214   0.00608   0.00175  -0.0256   0.5530   0.8548
   0.600   0.2312   0.00600   0.00175  -0.0252   0.5482   0.8840
   0.700   0.2405   0.00593   0.00176  -0.0246   0.5434   0.9167
   0.800   0.2522   0.00587   0.00174  -0.0245   0.5385   0.9505
   0.900   0.2683   0.00587   0.00173  -0.0256   0.5329   0.9735
   1.000   0.2836   0.00590   0.00174  -0.0265   0.5276   0.9860
   1.100   0.2994   0.00595   0.00175  -0.0275   0.5219   0.9926
   1.200   0.3157   0.00599   0.00177  -0.0287   0.5163   0.9969
   1.300   0.3327   0.00604   0.00179  -0.0301   0.5108   0.9992
   1.400   0.3454   0.00607   0.00180  -0.0304   0.5054   0.9999
   1.500   0.3563   0.00611   0.00180  -0.0304   0.5006   0.9999
   1.600   0.3672   0.00613   0.00180  -0.0303   0.4955   0.9999
   1.700   0.3781   0.00617   0.00181  -0.0303   0.4905   0.9999
   1.800   0.3892   0.00620   0.00181  -0.0303   0.4853   0.9999
   2.000   0.4112   0.00627   0.00183  -0.0302   0.4753   0.9999
   2.200   0.4334   0.00634   0.00186  -0.0302   0.4653   0.9999
   2.400   0.4558   0.00642   0.00189  -0.0303   0.4552   0.9999
   2.600   0.4782   0.00651   0.00194  -0.0303   0.4450   0.9999
   2.800   0.5007   0.00660   0.00198  -0.0304   0.4352   0.9999
   2.900   0.5120   0.00665   0.00201  -0.0305   0.4303   0.9999
   3.000   0.5234   0.00669   0.00203  -0.0305   0.4254   0.9999
   3.100   0.5347   0.00675   0.00206  -0.0306   0.4204   0.9999
   3.200   0.5460   0.00679   0.00209  -0.0306   0.4153   0.9999
   3.300   0.5573   0.00685   0.00212  -0.0307   0.4102   0.9999
   3.400   0.5687   0.00690   0.00215  -0.0308   0.4053   0.9999
   3.500   0.5801   0.00696   0.00219  -0.0309   0.4003   0.9999
   3.600   0.5915   0.00700   0.00222  -0.0309   0.3952   0.9999
   3.700   0.6029   0.00706   0.00226  -0.0310   0.3903   0.9999
   3.800   0.6143   0.00711   0.00230  -0.0311   0.3855   0.9999
   3.900   0.6257   0.00718   0.00233  -0.0312   0.3804   0.9999
   4.000   0.6371   0.00723   0.00237  -0.0313   0.3756   0.9999
   4.100   0.6484   0.00729   0.00242  -0.0313   0.3706   0.9999
   4.200   0.6599   0.00735   0.00246  -0.0314   0.3657   0.9999
   4.300   0.6712   0.00742   0.00250  -0.0315   0.3605   0.9999
   4.400   0.6826   0.00747   0.00255  -0.0316   0.3555   0.9999
   4.500   0.6940   0.00755   0.00260  -0.0317   0.3501   0.9999
   4.600   0.7054   0.00761   0.00265  -0.0318   0.3450   0.9999
   4.700   0.7167   0.00768   0.00270  -0.0319   0.3398   0.9999
   4.800   0.7282   0.00774   0.00275  -0.0320   0.3349   0.9999
   4.900   0.7395   0.00782   0.00280  -0.0321   0.3298   0.9999
   5.000   0.7509   0.00788   0.00285  -0.0322   0.3250   0.9999
   5.100   0.7622   0.00796   0.00291  -0.0323   0.3199   0.9999
   5.200   0.7736   0.00802   0.00297  -0.0324   0.3147   0.9999
   5.300   0.7849   0.00811   0.00303  -0.0324   0.3097   0.9999
   5.400   0.7962   0.00817   0.00309  -0.0325   0.3046   0.9999
   5.600   0.8188   0.00833   0.00321  -0.0327   0.2944   0.9999
   5.800   0.8414   0.00849   0.00335  -0.0329   0.2839   0.9999
   5.900   0.8526   0.00859   0.00342  -0.0330   0.2787   0.9999
   6.000   0.8639   0.00867   0.00349  -0.0331   0.2734   0.9999
   6.100   0.8751   0.00877   0.00356  -0.0332   0.2680   0.9999
   6.200   0.8863   0.00885   0.00364  -0.0332   0.2623   0.9999
   6.300   0.8974   0.00895   0.00372  -0.0333   0.2568   0.9999
   6.400   0.9086   0.00904   0.00379  -0.0334   0.2512   0.9999
   6.500   0.9198   0.00914   0.00387  -0.0335   0.2463   0.9999
   6.600   0.9309   0.00924   0.00396  -0.0336   0.2410   0.9999
   6.700   0.9420   0.00933   0.00404  -0.0336   0.2361   0.9999
   6.800   0.9531   0.00944   0.00413  -0.0337   0.2304   0.9999
   6.900   0.9642   0.00953   0.00422  -0.0338   0.2257   0.9999
   7.100   0.9863   0.00975   0.00440  -0.0339   0.2146   0.9999
   7.200   0.9971   0.00989   0.00451  -0.0340   0.2081   0.9999
   7.400   1.0187   0.01016   0.00472  -0.0341   0.1932   0.9999
   7.500   1.0295   0.01030   0.00484  -0.0341   0.1863   0.9999
   7.600   1.0403   0.01044   0.00495  -0.0341   0.1799   0.9999
   7.700   1.0511   0.01057   0.00506  -0.0342   0.1739   0.9999
   7.800   1.0618   0.01071   0.00518  -0.0342   0.1683   0.9999
   7.900   1.0724   0.01087   0.00531  -0.0342   0.1619   0.9999
   8.000   1.0831   0.01101   0.00544  -0.0343   0.1557   0.9999
   8.100   1.0936   0.01117   0.00557  -0.0343   0.1492   0.9999
   8.200   1.1040   0.01135   0.00571  -0.0343   0.1424   0.9999
   8.300   1.1143   0.01153   0.00586  -0.0343   0.1348   0.9999
   8.400   1.1247   0.01171   0.00601  -0.0343   0.1275   0.9999
   8.500   1.1348   0.01191   0.00617  -0.0343   0.1200   0.9999
   8.600   1.1449   0.01212   0.00634  -0.0342   0.1124   0.9999
   8.700   1.1549   0.01234   0.00652  -0.0342   0.1051   0.9999
   8.900   1.1747   0.01277   0.00689  -0.0341   0.0910   0.9999
   9.000   1.1846   0.01299   0.00707  -0.0340   0.0847   0.9999
   9.100   1.1943   0.01322   0.00727  -0.0339   0.0785   0.9999
   9.300   1.2137   0.01367   0.00766  -0.0338   0.0673   0.9999
   9.400   1.2233   0.01391   0.00788  -0.0336   0.0622   0.9999
   9.500   1.2327   0.01416   0.00809  -0.0335   0.0572   0.9999
   9.600   1.2423   0.01437   0.00830  -0.0334   0.0528   0.9999
   9.700   1.2516   0.01464   0.00853  -0.0333   0.0484   0.9999
   9.800   1.2610   0.01486   0.00875  -0.0331   0.0444   0.9999
   9.900   1.2702   0.01512   0.00898  -0.0330   0.0406   0.9999
  10.000   1.2792   0.01538   0.00922  -0.0328   0.0368   0.9999
  10.100   1.2883   0.01563   0.00946  -0.0326   0.0334   0.9999
  10.200   1.2970   0.01592   0.00973  -0.0324   0.0299   0.9999
  10.300   1.3060   0.01617   0.00997  -0.0322   0.0270   0.9999
  10.400   1.3144   0.01647   0.01025  -0.0319   0.0241   0.9999
  10.500   1.3232   0.01672   0.01051  -0.0317   0.0218   0.9999
  10.600   1.3315   0.01702   0.01080  -0.0314   0.0197   0.9999
  10.700   1.3402   0.01728   0.01106  -0.0312   0.0181   0.9999
  10.800   1.3481   0.01760   0.01138  -0.0309   0.0164   0.9999
  10.900   1.3568   0.01784   0.01163  -0.0306   0.0153   0.9999
  11.000   1.3648   0.01813   0.01193  -0.0303   0.0141   0.9999
  11.100   1.3726   0.01845   0.01225  -0.0300   0.0129   0.9999
  11.200   1.3806   0.01871   0.01253  -0.0296   0.0120   0.9999
  11.300   1.3878   0.01907   0.01289  -0.0292   0.0110   0.9999
  11.400   1.3954   0.01937   0.01321  -0.0288   0.0101   0.9999
  11.500   1.4027   0.01968   0.01354  -0.0284   0.0094   0.9999
  11.600   1.4090   0.02008   0.01394  -0.0279   0.0087   0.9999
  11.700   1.4160   0.02040   0.01429  -0.0274   0.0082   0.9999
  11.800   1.4230   0.02070   0.01462  -0.0269   0.0077   0.9999
  11.900   1.4294   0.02104   0.01498  -0.0264   0.0073   0.9999
  12.000   1.4348   0.02144   0.01540  -0.0257   0.0069   0.9999
  12.100   1.4398   0.02185   0.01584  -0.0250   0.0066   0.9999
  12.200   1.4459   0.02216   0.01618  -0.0244   0.0064   0.9999
  12.300   1.4516   0.02249   0.01654  -0.0238   0.0062   0.9999
  12.400   1.4568   0.02284   0.01691  -0.0231   0.0060   0.9999
  12.500   1.4615   0.02320   0.01730  -0.0224   0.0058   0.9999
  12.600   1.4648   0.02359   0.01771  -0.0214   0.0057   0.9999
  12.700   1.4664   0.02403   0.01818  -0.0202   0.0055   0.9999
  12.800   1.4668   0.02457   0.01875  -0.0189   0.0054   0.9999
  12.900   1.4661   0.02523   0.01945  -0.0176   0.0052   0.9999
  13.000   1.4693   0.02569   0.01994  -0.0168   0.0051   0.9999
  13.100   1.4722   0.02618   0.02048  -0.0161   0.0051   0.9999
  13.200   1.4749   0.02672   0.02105  -0.0155   0.0050   0.9999
  13.300   1.4774   0.02730   0.02166  -0.0148   0.0049   0.9999
  13.400   1.4799   0.02791   0.02231  -0.0143   0.0048   0.9999
  13.500   1.4821   0.02857   0.02300  -0.0138   0.0047   0.9999
  13.600   1.4843   0.02926   0.02373  -0.0134   0.0046   0.9999
  13.700   1.4861   0.03000   0.02451  -0.0130   0.0045   0.9999
  13.800   1.4878   0.03079   0.02534  -0.0126   0.0045   0.9999
  13.900   1.4894   0.03161   0.02620  -0.0124   0.0044   0.9999
  14.000   1.4904   0.03251   0.02713  -0.0121   0.0043   0.9999
  14.100   1.4911   0.03346   0.02812  -0.0119   0.0043   0.9999
  14.200   1.4913   0.03451   0.02921  -0.0118   0.0042   0.9999
  14.300   1.4908   0.03565   0.03039  -0.0117   0.0042   0.9999
  14.400   1.4896   0.03689   0.03168  -0.0116   0.0041   0.9999
  14.500   1.4876   0.03826   0.03309  -0.0117   0.0041   0.9999
  14.600   1.4851   0.03972   0.03461  -0.0118   0.0040   0.9999
  14.700   1.4811   0.04139   0.03633  -0.0119   0.0040   0.9999
  14.800   1.4784   0.04292   0.03792  -0.0121   0.0040   0.9999
  14.900   1.4775   0.04427   0.03931  -0.0124   0.0039   0.9999
  15.000   1.4768   0.04560   0.04069  -0.0126   0.0039   0.9999
  15.100   1.4752   0.04707   0.04220  -0.0129   0.0039   0.9999
  15.200   1.4735   0.04856   0.04373  -0.0132   0.0039   0.9999
  15.300   1.4713   0.05012   0.04535  -0.0135   0.0038   0.9999
  15.400   1.4687   0.05176   0.04704  -0.0139   0.0038   0.9999
  15.500   1.4657   0.05348   0.04880  -0.0144   0.0038   0.9999
  15.600   1.4624   0.05525   0.05062  -0.0148   0.0038   0.9999
  15.700   1.4587   0.05708   0.05250  -0.0153   0.0038   0.9999
  15.800   1.4548   0.05895   0.05442  -0.0159   0.0037   0.9999
  15.900   1.4504   0.06091   0.05644  -0.0164   0.0037   0.9999
  16.000   1.4459   0.06291   0.05848  -0.0170   0.0037   0.9999
  16.100   1.4410   0.06496   0.06058  -0.0177   0.0037   0.9999
  16.200   1.4356   0.06712   0.06279  -0.0184   0.0037   0.9999
  16.300   1.4301   0.06934   0.06506  -0.0191   0.0037   0.9999
  16.400   1.4251   0.07151   0.06728  -0.0199   0.0036   0.9999
  16.500   1.4195   0.07381   0.06963  -0.0207   0.0036   0.9999
  16.600   1.4134   0.07620   0.07207  -0.0215   0.0036   0.9999
  16.700   1.4075   0.07858   0.07450  -0.0224   0.0036   0.9999
  16.800   1.4010   0.08107   0.07703  -0.0233   0.0036   0.9999
  16.900   1.3948   0.08354   0.07956  -0.0243   0.0036   0.9999
  17.000   1.3883   0.08608   0.08215  -0.0252   0.0036   0.9999
  17.100   1.3817   0.08865   0.08477  -0.0262   0.0036   0.9999
  17.200   1.3752   0.09122   0.08738  -0.0272   0.0036   0.9999
  17.300   1.3685   0.09385   0.09006  -0.0283   0.0036   0.9999
  17.400   1.3616   0.09654   0.09280  -0.0294   0.0036   0.9999
  17.500   1.3550   0.09920   0.09551  -0.0305   0.0036   0.9999
  17.600   1.3485   0.10184   0.09820  -0.0315   0.0036   0.9999
  17.700   1.3416   0.10456   0.10096  -0.0327   0.0036   0.9999
  17.800   1.3353   0.10721   0.10365  -0.0338   0.0035   0.9999
  17.900   1.3286   0.10996   0.10644  -0.0350   0.0035   0.9999
  18.000   1.3222   0.11268   0.10920  -0.0362   0.0035   0.9999
  18.100   1.3158   0.11540   0.11197  -0.0374   0.0035   0.9999
  18.200   1.3100   0.11803   0.11465  -0.0386   0.0035   0.9999
  18.300   1.3040   0.12072   0.11737  -0.0399   0.0035   0.9999
  18.400   1.2982   0.12338   0.12008  -0.0411   0.0035   0.9999
  18.500   1.2929   0.12598   0.12272  -0.0424   0.0035   0.9999
  18.600   1.2873   0.12865   0.12542  -0.0437   0.0035   0.9999
  18.700   1.2821   0.13128   0.12809  -0.0450   0.0035   0.9999
  18.800   1.2775   0.13380   0.13065  -0.0463   0.0035   0.9999
  18.900   1.2725   0.13640   0.13328  -0.0476   0.0035   0.9999
  19.000   1.2681   0.13891   0.13583  -0.0489   0.0035   0.9999
  19.100   1.2639   0.14140   0.13835  -0.0502   0.0035   0.9999
  19.200   1.2595   0.14394   0.14093  -0.0516   0.0035   0.9999
  19.300   1.2558   0.14637   0.14339  -0.0530   0.0035   0.9999
  19.400   1.2521   0.14881   0.14587  -0.0543   0.0034   0.9999
  19.500   1.2488   0.15119   0.14828  -0.0557   0.0034   0.9999
  19.600   1.2453   0.15361   0.15073  -0.0571   0.0034   0.9999
  19.700   1.2424   0.15595   0.15310  -0.0585   0.0034   0.9999
  19.800   1.2395   0.15827   0.15545  -0.0599   0.0034   0.9999
  19.900   1.2365   0.16062   0.15783  -0.0613   0.0034   0.9999
  20.000   1.2341   0.16286   0.16009  -0.0626   0.0034   0.9999
