  
       XFOIL         Version 6.99
  
 Calculated polar for: s1075                                           
  
 1 1 Reynolds number fixed          Mach number fixed         
  
 xtrf =   1.000 (top)        1.000 (bottom)  
 Mach =   0.000     Re =     0.020 e 6     Ncrit =   9.000
  
   alpha    CL        CD       CDp       CM     Top_Xtr  Bot_Xtr
  ------ -------- --------- --------- -------- -------- --------
   0.000  -0.0186   0.03230   0.01626  -0.0126   1.0001   0.9999
   0.100  -0.0128   0.03258   0.01646  -0.0125   1.0001   0.9999
   0.200  -0.0069   0.03288   0.01668  -0.0124   1.0001   0.9999
   0.300  -0.0010   0.03318   0.01691  -0.0123   1.0001   0.9999
   0.400   0.0049   0.03349   0.01716  -0.0122   1.0001   0.9999
   0.500   0.0108   0.03381   0.01741  -0.0122   1.0001   0.9999
   0.600   0.0168   0.03415   0.01767  -0.0121   1.0001   0.9999
   0.700   0.0228   0.03449   0.01796  -0.0121   1.0001   0.9999
   0.800   0.0287   0.03485   0.01826  -0.0121   1.0001   0.9999
   0.900   0.0347   0.03521   0.01857  -0.0122   1.0001   0.9999
   1.000   0.0406   0.03559   0.01889  -0.0122   1.0001   0.9999
   1.100   0.0466   0.03597   0.01923  -0.0122   1.0001   0.9999
   1.200   0.0526   0.03637   0.01958  -0.0123   1.0001   0.9999
   1.300   0.0585   0.03678   0.01993  -0.0124   1.0001   0.9999
   1.400   0.0645   0.03720   0.02031  -0.0125   1.0001   0.9999
   1.500   0.0705   0.03763   0.02070  -0.0126   1.0001   0.9999
   1.600   0.0764   0.03807   0.02110  -0.0127   1.0001   0.9999
   1.700   0.0824   0.03852   0.02152  -0.0128   1.0001   0.9999
   1.800   0.0883   0.03898   0.02195  -0.0130   1.0001   0.9999
   1.900   0.0942   0.03946   0.02240  -0.0131   1.0001   0.9999
   2.000   0.1001   0.03995   0.02285  -0.0133   1.0001   0.9999
   2.100   0.1060   0.04044   0.02332  -0.0134   1.0001   0.9999
   2.200   0.1118   0.04095   0.02380  -0.0136   1.0001   0.9999
   2.300   0.1177   0.04147   0.02430  -0.0138   1.0001   0.9999
   2.400   0.1235   0.04200   0.02480  -0.0140   1.0001   0.9999
   2.500   0.1292   0.04254   0.02533  -0.0142   1.0001   0.9999
   2.600   0.1350   0.04309   0.02586  -0.0145   1.0001   0.9999
   2.700   0.1407   0.04365   0.02641  -0.0147   1.0001   0.9999
   2.800   0.1464   0.04423   0.02697  -0.0149   1.0001   0.9999
   2.900   0.1521   0.04481   0.02754  -0.0152   1.0001   0.9999
   3.000   0.1577   0.04541   0.02813  -0.0154   1.0001   0.9999
   3.100   0.1633   0.04602   0.02872  -0.0157   1.0001   0.9999
   3.200   0.1689   0.04664   0.02933  -0.0160   1.0001   0.9999
   3.300   0.1744   0.04727   0.02996  -0.0162   1.0001   0.9999
   3.400   0.1799   0.04791   0.03060  -0.0165   1.0001   0.9999
   3.500   0.1854   0.04856   0.03125  -0.0168   1.0001   0.9999
   3.600   0.1909   0.04922   0.03191  -0.0171   1.0001   0.9999
   3.700   0.1963   0.04989   0.03258  -0.0174   1.0001   0.9999
   3.800   0.2017   0.05058   0.03327  -0.0177   1.0001   0.9999
   3.900   0.2070   0.05127   0.03397  -0.0180   1.0001   0.9999
   4.000   0.2123   0.05198   0.03468  -0.0184   1.0001   0.9999
   4.100   0.2176   0.05270   0.03540  -0.0187   1.0001   0.9999
   4.200   0.2229   0.05343   0.03614  -0.0190   1.0001   0.9999
   4.300   0.2281   0.05417   0.03689  -0.0194   1.0001   0.9999
   4.400   0.2333   0.05492   0.03765  -0.0197   1.0001   0.9999
   4.500   0.2384   0.05568   0.03843  -0.0200   1.0001   0.9999
   4.600   0.2435   0.05645   0.03922  -0.0204   1.0001   0.9999
   4.700   0.2486   0.05724   0.04002  -0.0208   1.0001   0.9999
   4.800   0.2537   0.05803   0.04083  -0.0211   1.0001   0.9999
   4.900   0.2587   0.05884   0.04165  -0.0215   1.0001   0.9999
   5.000   0.2637   0.05966   0.04248  -0.0218   1.0001   0.9999
   5.100   0.2686   0.06048   0.04333  -0.0222   1.0001   0.9999
   5.200   0.2736   0.06132   0.04419  -0.0226   1.0001   0.9999
   5.300   0.2784   0.06217   0.04506  -0.0230   1.0001   0.9999
   5.400   0.2833   0.06303   0.04595  -0.0234   1.0001   0.9999
   5.500   0.2881   0.06391   0.04685  -0.0238   1.0001   0.9999
   5.600   0.2929   0.06479   0.04775  -0.0242   1.0001   0.9999
   5.700   0.2977   0.06568   0.04867  -0.0246   1.0001   0.9999
   5.800   0.3024   0.06659   0.04960  -0.0250   1.0001   0.9999
   5.900   0.3071   0.06750   0.05054  -0.0254   1.0001   0.9999
   6.000   0.3118   0.06843   0.05150  -0.0258   1.0001   0.9999
   6.100   0.3165   0.06937   0.05247  -0.0262   1.0001   0.9999
   6.200   0.3211   0.07032   0.05344  -0.0266   1.0001   0.9999
   6.300   0.3257   0.07128   0.05445  -0.0270   1.0001   0.9999
   6.400   0.3302   0.07225   0.05545  -0.0274   1.0001   0.9999
   6.500   0.3347   0.07323   0.05646  -0.0279   1.0001   0.9999
   6.600   0.3392   0.07422   0.05749  -0.0283   1.0001   0.9999
   6.700   0.3437   0.07522   0.05852  -0.0287   1.0001   0.9999
   6.800   0.3481   0.07624   0.05957  -0.0292   1.0001   0.9999
   6.900   0.3526   0.07726   0.06063  -0.0296   1.0001   0.9999
   7.000   0.3569   0.07829   0.06170  -0.0301   1.0001   0.9999
   7.100   0.3613   0.07934   0.06278  -0.0305   1.0001   0.9999
   7.200   0.3656   0.08040   0.06388  -0.0310   1.0001   0.9999
   7.300   0.3700   0.08146   0.06500  -0.0314   1.0001   0.9999
   7.400   0.3742   0.08254   0.06611  -0.0319   1.0001   0.9999
   7.500   0.3785   0.08363   0.06724  -0.0323   1.0001   0.9999
   7.600   0.3827   0.08473   0.06838  -0.0328   1.0001   0.9999
   7.700   0.3869   0.08584   0.06953  -0.0333   1.0001   0.9999
   7.800   0.3911   0.08695   0.07069  -0.0337   1.0001   0.9999
   7.900   0.3953   0.08808   0.07186  -0.0342   1.0001   0.9999
   8.000   0.3994   0.08922   0.07304  -0.0347   1.0001   0.9999
   8.100   0.4035   0.09037   0.07423  -0.0352   1.0001   0.9999
   8.200   0.4076   0.09153   0.07543  -0.0357   1.0001   0.9999
   8.300   0.4117   0.09270   0.07664  -0.0361   1.0001   0.9999
   8.400   0.4157   0.09388   0.07789  -0.0366   1.0001   0.9999
   8.500   0.4197   0.09507   0.07912  -0.0371   1.0001   0.9999
   8.600   0.4238   0.09626   0.08036  -0.0376   1.0001   0.9999
   8.700   0.4278   0.09747   0.08162  -0.0381   1.0001   0.9999
   8.800   0.4317   0.09869   0.08288  -0.0386   1.0001   0.9999
   8.900   0.4357   0.09991   0.08415  -0.0392   1.0001   0.9999
   9.000   0.4396   0.10115   0.08543  -0.0397   1.0001   0.9999
   9.100   0.4435   0.10239   0.08672  -0.0402   1.0001   0.9999
   9.200   0.4474   0.10364   0.08802  -0.0407   1.0001   0.9999
   9.300   0.4513   0.10490   0.08933  -0.0412   1.0001   0.9999
   9.400   0.4552   0.10617   0.09065  -0.0418   1.0001   0.9999
   9.500   0.4591   0.10745   0.09200  -0.0423   1.0001   0.9999
   9.600   0.4629   0.10874   0.09333  -0.0429   1.0001   0.9999
   9.700   0.4668   0.11003   0.09468  -0.0434   1.0001   0.9999
   9.800   0.4791   0.11240   0.09714  -0.0460   0.9943   0.9999
   9.900   0.5000   0.11605   0.10092  -0.0505   0.9812   0.9999
  10.000   0.5120   0.11816   0.10314  -0.0531   0.9668   0.9999
  10.100   0.5263   0.12082   0.10591  -0.0559   0.9533   0.9999
  10.200   0.5405   0.12365   0.10884  -0.0586   0.9410   0.9999
  10.300   0.5462   0.12487   0.11016  -0.0595   0.9282   0.9999
  10.400   0.5551   0.12671   0.11209  -0.0610   0.9150   0.9999
  10.500   0.5649   0.12880   0.11427  -0.0626   0.9031   0.9999
  10.600   0.5746   0.13096   0.11651  -0.0641   0.8916   0.9999
  10.700   0.5848   0.13325   0.11888  -0.0657   0.8802   0.9999
  10.800   0.5927   0.13516   0.12086  -0.0668   0.8692   0.9999
  10.900   0.5992   0.13680   0.12257  -0.0676   0.8587   0.9999
  11.000   0.6059   0.13851   0.12435  -0.0685   0.8483   0.9999
  11.100   0.6125   0.14021   0.12612  -0.0693   0.8380   0.9999
  11.200   0.6191   0.14192   0.12790  -0.0700   0.8277   0.9999
  11.300   0.6260   0.14373   0.12980  -0.0708   0.8176   0.9999
  11.400   0.6337   0.14573   0.13188  -0.0718   0.8078   0.9999
  11.500   0.6379   0.14698   0.13318  -0.0721   0.7982   0.9999
  11.600   0.6419   0.14823   0.13449  -0.0724   0.7887   0.9999
  11.700   0.6460   0.14951   0.13582  -0.0727   0.7795   0.9999
  11.800   0.6503   0.15087   0.13723  -0.0730   0.7707   0.9999
  11.900   0.6554   0.15245   0.13886  -0.0735   0.7624   0.9999
  12.000   0.6618   0.15431   0.14078  -0.0742   0.7538   0.9999
  12.100   0.6690   0.15633   0.14288  -0.0750   0.7447   0.9999
  12.200   0.6768   0.15852   0.14513  -0.0758   0.7354   0.9999
  12.300   0.6793   0.15943   0.14610  -0.0759   0.7268   0.9999
  12.400   0.6811   0.16030   0.14700  -0.0759   0.7194   0.9999
  12.500   0.6861   0.16195   0.14869  -0.0764   0.7117   0.9999
  12.600   0.6931   0.16401   0.15085  -0.0771   0.7032   0.9999
  12.700   0.7012   0.16636   0.15326  -0.0779   0.6943   0.9999
  12.800   0.7025   0.16698   0.15392  -0.0778   0.6863   0.9999
  12.900   0.7046   0.16798   0.15495  -0.0779   0.6795   0.9999
  13.000   0.7111   0.17002   0.15705  -0.0786   0.6721   0.9999
  13.100   0.7193   0.17248   0.15958  -0.0794   0.6635   0.9999
  13.200   0.7207   0.17312   0.16025  -0.0794   0.6556   0.9999
  13.300   0.7227   0.17407   0.16123  -0.0795   0.6488   0.9999
  13.400   0.7292   0.17617   0.16339  -0.0802   0.6416   0.9999
  13.500   0.7375   0.17872   0.16602  -0.0810   0.6335   0.9999
  13.600   0.7359   0.17863   0.16593  -0.0807   0.6273   0.9999
  13.700   0.7411   0.18042   0.16777  -0.0812   0.6204   0.9999
  13.800   0.7492   0.18298   0.17039  -0.0819   0.6122   0.9999
  13.900   0.7503   0.18351   0.17095  -0.0820   0.6050   0.9999
  14.000   0.7531   0.18472   0.17219  -0.0823   0.5991   0.9999
  14.100   0.7618   0.18757   0.17510  -0.0831   0.5918   0.9999
  14.200   0.7619   0.18780   0.17537  -0.0831   0.5853   0.9999
  14.300   0.7657   0.18927   0.17688  -0.0835   0.5791   0.9999
  14.400   0.7739   0.19198   0.17965  -0.0842   0.5714   0.9999
  14.500   0.7745   0.19232   0.18001  -0.0842   0.5647   0.9999
  14.600   0.7783   0.19384   0.18157  -0.0847   0.5592   0.9999
  14.700   0.7878   0.19704   0.18484  -0.0855   0.5517   0.9999
  14.800   0.7852   0.19644   0.18422  -0.0854   0.5468   0.9999
  14.900   0.7923   0.19894   0.18678  -0.0860   0.5402   0.9999
  15.000   0.7958   0.20016   0.18803  -0.0863   0.5330   0.9999
  15.100   0.7975   0.20099   0.18888  -0.0866   0.5278   0.9999
  15.200   0.8065   0.20418   0.19213  -0.0874   0.5207   0.9999
  15.300   0.8049   0.20376   0.19170  -0.0875   0.5158   0.9999
  15.400   0.8124   0.20653   0.19453  -0.0881   0.5100   0.9999
  15.500   0.8134   0.20690   0.19491  -0.0884   0.5040   0.9999
  15.600   0.8179   0.20869   0.19673  -0.0889   0.4986   0.9999
  15.700   0.8249   0.21110   0.19920  -0.0894   0.4913   0.9999
  15.800   0.8244   0.21115   0.19923  -0.0897   0.4871   0.9999
  15.900   0.8342   0.21475   0.20291  -0.0904   0.4803   0.9999
  16.000   0.8318   0.21393   0.20208  -0.0906   0.4763   0.9999
  16.100   0.8410   0.21741   0.20561  -0.0913   0.4700   0.9999
  16.200   0.8392   0.21674   0.20494  -0.0915   0.4655   0.9999
  16.300   0.8474   0.21987   0.20812  -0.0921   0.4595   0.9999
  16.400   0.8468   0.21959   0.20784  -0.0925   0.4547   0.9999
  16.500   0.8545   0.22259   0.21087  -0.0931   0.4492   0.9999
  16.600   0.8543   0.22243   0.21071  -0.0935   0.4446   0.9999
  16.700   0.8625   0.22570   0.21402  -0.0941   0.4393   0.9999
  16.800   0.8616   0.22523   0.21355  -0.0945   0.4350   0.9999
  16.900   0.8704   0.22873   0.21709  -0.0951   0.4293   0.9999
  17.000   0.8691   0.22805   0.21641  -0.0955   0.4253   0.9999
  17.100   0.8787   0.23194   0.22034  -0.0961   0.4194   0.9999
  17.200   0.8768   0.23097   0.21936  -0.0966   0.4161   0.9999
  17.300   0.8839   0.23368   0.22211  -0.0971   0.4105   0.9999
  17.400   0.8852   0.23424   0.22266  -0.0977   0.4074   0.9999
  17.500   0.8885   0.23532   0.22375  -0.0982   0.4022   0.9999
  17.600   0.8942   0.23773   0.22618  -0.0988   0.3983   0.9999
  17.700   0.8948   0.23770   0.22616  -0.0994   0.3940   0.9999
  17.800   0.9037   0.24148   0.22997  -0.0999   0.3890   0.9999
  18.000   0.9084   0.24287   0.23140  -0.1010   0.3807   0.9999
  18.100   0.9117   0.24431   0.23285  -0.1017   0.3778   0.9999
  18.200   0.9130   0.24449   0.23302  -0.1023   0.3737   0.9999
  18.300   0.9223   0.24860   0.23717  -0.1028   0.3689   0.9999
  18.400   0.9209   0.24754   0.23610  -0.1036   0.3663   0.9999
  18.500   0.9250   0.24896   0.23753  -0.1041   0.3617   0.9999
  18.600   0.9310   0.25163   0.24022  -0.1047   0.3582   0.9999
  18.700   0.9311   0.25121   0.23979  -0.1055   0.3550   0.9999
  18.800   0.9372   0.25361   0.24223  -0.1060   0.3505   0.9999
  18.900   0.9410   0.25527   0.24388  -0.1066   0.3479   0.9999
  19.000   0.9418   0.25511   0.24372  -0.1074   0.3445   0.9999
  19.100   0.9487   0.25800   0.24665  -0.1079   0.3400   0.9999
  19.200   0.9514   0.25904   0.24767  -0.1086   0.3376   0.9999
  19.300   0.9526   0.25901   0.24765  -0.1094   0.3342   0.9999
  19.400   0.9596   0.26201   0.25069  -0.1099   0.3299   0.9999
  19.500   0.9623   0.26308   0.25174  -0.1106   0.3277   0.9999
  19.600   0.9633   0.26291   0.25157  -0.1115   0.3245   0.9999
  19.700   0.9690   0.26522   0.25391  -0.1120   0.3206   0.9999
  19.800   0.9740   0.26754   0.25625  -0.1126   0.3182   0.9999
  19.900   0.9742   0.26693   0.25563  -0.1136   0.3155   0.9999
  20.000   0.9784   0.26840   0.25712  -0.1142   0.3117   0.9999
