  
       XFOIL         Version 6.99
  
 Calculated polar for: s1075                                           
  
 1 1 Reynolds number fixed          Mach number fixed         
  
 xtrf =   1.000 (top)        1.000 (bottom)  
 Mach =   0.000     Re =     0.250 e 6     Ncrit =   9.000
  
   alpha    CL        CD       CDp       CM     Top_Xtr  Bot_Xtr
  ------ -------- --------- --------- -------- -------- --------
   0.000   0.2052   0.00919   0.00360  -0.0336   0.7067   0.9999
   0.100   0.2156   0.00920   0.00357  -0.0334   0.7012   0.9999
   0.200   0.2258   0.00922   0.00352  -0.0332   0.6959   0.9999
   0.300   0.2362   0.00923   0.00349  -0.0331   0.6902   0.9999
   0.400   0.2465   0.00925   0.00346  -0.0329   0.6851   0.9999
   0.500   0.2570   0.00927   0.00344  -0.0328   0.6792   0.9999
   0.600   0.2673   0.00929   0.00341  -0.0326   0.6744   0.9999
   0.700   0.2779   0.00931   0.00340  -0.0325   0.6683   0.9999
   0.800   0.2883   0.00935   0.00337  -0.0324   0.6635   0.9999
   0.900   0.2990   0.00937   0.00337  -0.0323   0.6574   0.9999
   1.000   0.3095   0.00940   0.00335  -0.0321   0.6524   0.9999
   1.100   0.3202   0.00943   0.00335  -0.0320   0.6465   0.9999
   1.200   0.3309   0.00947   0.00334  -0.0319   0.6413   0.9999
   1.300   0.3416   0.00950   0.00334  -0.0318   0.6356   0.9999
   1.400   0.3524   0.00954   0.00334  -0.0318   0.6302   0.9999
   1.500   0.3631   0.00958   0.00334  -0.0317   0.6248   0.9999
   1.600   0.3739   0.00962   0.00335  -0.0316   0.6192   0.9999
   1.700   0.3847   0.00966   0.00335  -0.0315   0.6139   0.9999
   1.800   0.3956   0.00970   0.00337  -0.0315   0.6081   0.9999
   1.900   0.4064   0.00976   0.00338  -0.0314   0.6031   0.9999
   2.000   0.4174   0.00979   0.00340  -0.0314   0.5971   0.9999
   2.100   0.4282   0.00985   0.00341  -0.0313   0.5922   0.9999
   2.200   0.4393   0.00989   0.00344  -0.0313   0.5860   0.9999
   2.300   0.4502   0.00995   0.00345  -0.0312   0.5810   0.9999
   2.400   0.4612   0.01000   0.00348  -0.0312   0.5750   0.9999
   2.500   0.4722   0.01005   0.00351  -0.0312   0.5697   0.9999
   2.600   0.4832   0.01011   0.00353  -0.0312   0.5640   0.9999
   2.700   0.4942   0.01016   0.00357  -0.0312   0.5584   0.9999
   2.800   0.5052   0.01023   0.00360  -0.0311   0.5530   0.9999
   2.900   0.5163   0.01028   0.00364  -0.0311   0.5472   0.9999
   3.000   0.5273   0.01035   0.00367  -0.0311   0.5421   0.9999
   3.100   0.5384   0.01040   0.00372  -0.0311   0.5360   0.9999
   3.200   0.5493   0.01048   0.00375  -0.0311   0.5311   0.9999
   3.300   0.5605   0.01053   0.00380  -0.0311   0.5249   0.9999
   3.400   0.5715   0.01061   0.00384  -0.0311   0.5197   0.9999
   3.500   0.5826   0.01067   0.00390  -0.0311   0.5137   0.9999
   3.600   0.5937   0.01074   0.00395  -0.0311   0.5083   0.9999
   3.700   0.6047   0.01081   0.00400  -0.0311   0.5027   0.9999
   3.800   0.6158   0.01088   0.00406  -0.0311   0.4970   0.9999
   3.900   0.6268   0.01096   0.00411  -0.0311   0.4916   0.9999
   4.000   0.6379   0.01103   0.00417  -0.0311   0.4857   0.9999
   4.100   0.6489   0.01112   0.00423  -0.0311   0.4807   0.9999
   4.200   0.6600   0.01118   0.00431  -0.0312   0.4745   0.9999
   4.300   0.6710   0.01128   0.00436  -0.0312   0.4694   0.9999
   4.400   0.6821   0.01135   0.00444  -0.0312   0.4634   0.9999
   4.500   0.6931   0.01144   0.00451  -0.0312   0.4580   0.9999
   4.600   0.7041   0.01152   0.00459  -0.0312   0.4523   0.9999
   4.700   0.7151   0.01161   0.00467  -0.0312   0.4467   0.9999
   4.800   0.7261   0.01170   0.00474  -0.0312   0.4412   0.9999
   4.900   0.7371   0.01178   0.00483  -0.0312   0.4353   0.9999
   5.000   0.7480   0.01189   0.00490  -0.0312   0.4302   0.9999
   5.100   0.7591   0.01197   0.00500  -0.0313   0.4241   0.9999
   5.200   0.7699   0.01208   0.00508  -0.0313   0.4191   0.9999
   5.300   0.7809   0.01216   0.00518  -0.0313   0.4129   0.9999
   5.400   0.7918   0.01227   0.00527  -0.0313   0.4076   0.9999
   5.500   0.8027   0.01237   0.00537  -0.0313   0.4018   0.9999
   5.600   0.8136   0.01247   0.00547  -0.0313   0.3961   0.9999
   5.700   0.8244   0.01258   0.00556  -0.0313   0.3905   0.9999
   5.800   0.8353   0.01268   0.00567  -0.0313   0.3846   0.9999
   5.900   0.8460   0.01281   0.00578  -0.0313   0.3794   0.9999
   6.000   0.8569   0.01290   0.00589  -0.0313   0.3731   0.9999
   6.100   0.8676   0.01303   0.00600  -0.0313   0.3679   0.9999
   6.200   0.8784   0.01313   0.00612  -0.0313   0.3618   0.9999
   6.300   0.8891   0.01325   0.00624  -0.0313   0.3562   0.9999
   6.400   0.8998   0.01338   0.00635  -0.0313   0.3505   0.9999
   6.500   0.9105   0.01349   0.00648  -0.0312   0.3446   0.9999
   6.600   0.9210   0.01364   0.00661  -0.0312   0.3393   0.9999
   6.700   0.9317   0.01374   0.00674  -0.0312   0.3330   0.9999
   6.800   0.9422   0.01389   0.00687  -0.0312   0.3276   0.9999
   6.900   0.9528   0.01401   0.00701  -0.0311   0.3214   0.9999
   7.000   0.9633   0.01414   0.00715  -0.0311   0.3156   0.9999
   7.100   0.9736   0.01429   0.00728  -0.0311   0.3098   0.9999
   7.200   0.9842   0.01442   0.00743  -0.0310   0.3036   0.9999
   7.300   0.9944   0.01458   0.00757  -0.0310   0.2981   0.9999
   7.400   1.0048   0.01471   0.00773  -0.0309   0.2916   0.9999
   7.500   1.0151   0.01486   0.00789  -0.0309   0.2856   0.9999
   7.600   1.0252   0.01503   0.00805  -0.0308   0.2798   0.9999
   7.700   1.0355   0.01517   0.00821  -0.0308   0.2734   0.9999
   7.800   1.0455   0.01534   0.00838  -0.0307   0.2677   0.9999
   7.900   1.0557   0.01550   0.00855  -0.0306   0.2614   0.9999
   8.000   1.0658   0.01566   0.00873  -0.0305   0.2553   0.9999
   8.100   1.0755   0.01586   0.00891  -0.0304   0.2495   0.9999
   8.200   1.0856   0.01601   0.00910  -0.0304   0.2428   0.9999
   8.300   1.0954   0.01620   0.00929  -0.0302   0.2366   0.9999
   8.400   1.1050   0.01641   0.00948  -0.0301   0.2300   0.9999
   8.500   1.1148   0.01658   0.00967  -0.0300   0.2226   0.9999
   8.600   1.1244   0.01677   0.00987  -0.0299   0.2153   0.9999
   8.700   1.1337   0.01699   0.01008  -0.0298   0.2082   0.9999
   8.800   1.1429   0.01721   0.01029  -0.0296   0.2008   0.9999
   8.900   1.1524   0.01742   0.01051  -0.0295   0.1931   0.9999
   9.000   1.1616   0.01764   0.01074  -0.0293   0.1857   0.9999
   9.100   1.1706   0.01789   0.01099  -0.0291   0.1787   0.9999
   9.200   1.1793   0.01817   0.01124  -0.0289   0.1716   0.9999
   9.300   1.1883   0.01840   0.01150  -0.0287   0.1641   0.9999
   9.400   1.1970   0.01867   0.01177  -0.0285   0.1568   0.9999
   9.500   1.2054   0.01897   0.01205  -0.0283   0.1496   0.9999
   9.600   1.2135   0.01929   0.01235  -0.0280   0.1424   0.9999
   9.700   1.2216   0.01960   0.01266  -0.0277   0.1348   0.9999
   9.800   1.2296   0.01992   0.01298  -0.0274   0.1271   0.9999
   9.900   1.2373   0.02027   0.01332  -0.0271   0.1196   0.9999
  10.000   1.2446   0.02064   0.01368  -0.0267   0.1121   0.9999
  10.100   1.2514   0.02105   0.01406  -0.0263   0.1047   0.9999
  10.200   1.2578   0.02149   0.01447  -0.0258   0.0973   0.9999
  10.300   1.2642   0.02193   0.01488  -0.0253   0.0898   0.9999
  10.400   1.2704   0.02237   0.01531  -0.0248   0.0826   0.9999
  10.500   1.2760   0.02285   0.01577  -0.0243   0.0758   0.9999
  10.600   1.2809   0.02337   0.01627  -0.0236   0.0695   0.9999
  10.800   1.2896   0.02447   0.01733  -0.0222   0.0583   0.9999
  10.900   1.2930   0.02505   0.01791  -0.0214   0.0537   0.9999
  11.000   1.2955   0.02567   0.01851  -0.0204   0.0498   0.9999
  11.100   1.2982   0.02626   0.01914  -0.0195   0.0462   0.9999
  11.200   1.2999   0.02689   0.01976  -0.0185   0.0432   0.9999
  11.300   1.2989   0.02760   0.02047  -0.0171   0.0411   0.9999
  11.400   1.3003   0.02814   0.02107  -0.0160   0.0387   0.9999
  11.500   1.3000   0.02882   0.02176  -0.0148   0.0369   0.9999
  11.600   1.2968   0.02974   0.02268  -0.0135   0.0355   0.9999
  11.700   1.2980   0.03043   0.02343  -0.0127   0.0338   0.9999
  11.800   1.2987   0.03118   0.02422  -0.0119   0.0322   0.9999
  11.900   1.2983   0.03205   0.02512  -0.0112   0.0309   0.9999
  12.000   1.2954   0.03318   0.02625  -0.0105   0.0299   0.9999
  12.100   1.2937   0.03426   0.02738  -0.0099   0.0290   0.9999
  12.200   1.2947   0.03515   0.02834  -0.0095   0.0278   0.9999
  12.300   1.2950   0.03613   0.02936  -0.0092   0.0266   0.9999
  12.400   1.2945   0.03720   0.03046  -0.0090   0.0258   0.9999
  12.500   1.2924   0.03847   0.03176  -0.0088   0.0251   0.9999
  12.600   1.2878   0.04002   0.03331  -0.0086   0.0245   0.9999
  12.700   1.2872   0.04121   0.03457  -0.0085   0.0238   0.9999
  12.800   1.2875   0.04234   0.03577  -0.0084   0.0230   0.9999
  12.900   1.2871   0.04355   0.03703  -0.0084   0.0223   0.9999
  13.000   1.2863   0.04482   0.03834  -0.0084   0.0217   0.9999
  13.100   1.2851   0.04615   0.03970  -0.0086   0.0212   0.9999
  13.200   1.2829   0.04759   0.04117  -0.0087   0.0208   0.9999
  13.300   1.2797   0.04917   0.04277  -0.0088   0.0204   0.9999
  13.400   1.2752   0.05088   0.04449  -0.0089   0.0201   0.9999
  13.500   1.2725   0.05242   0.04607  -0.0090   0.0198   0.9999
  13.600   1.2717   0.05378   0.04751  -0.0091   0.0194   0.9999
  13.700   1.2705   0.05520   0.04900  -0.0093   0.0191   0.9999
  13.800   1.2691   0.05664   0.05050  -0.0095   0.0188   0.9999
  13.900   1.2675   0.05811   0.05202  -0.0097   0.0184   0.9999
  14.000   1.2659   0.05959   0.05355  -0.0099   0.0181   0.9999
  14.100   1.2643   0.06107   0.05506  -0.0101   0.0179   0.9999
  14.200   1.2626   0.06256   0.05659  -0.0103   0.0176   0.9999
  14.300   1.2608   0.06405   0.05811  -0.0106   0.0174   0.9999
  14.400   1.2591   0.06555   0.05964  -0.0108   0.0172   0.9999
  14.500   1.2573   0.06704   0.06114  -0.0111   0.0170   0.9999
  14.600   1.2554   0.06851   0.06262  -0.0112   0.0168   0.9999
  14.700   1.2533   0.06994   0.06405  -0.0112   0.0165   0.9999
  14.800   1.2514   0.07122   0.06531  -0.0108   0.0163   0.9999
  14.900   1.2499   0.07282   0.06699  -0.0112   0.0161   0.9999
  15.000   1.2483   0.07446   0.06871  -0.0117   0.0160   0.9999
  15.100   1.2467   0.07608   0.07040  -0.0121   0.0158   0.9999
  15.200   1.2451   0.07772   0.07211  -0.0125   0.0156   0.9999
  15.300   1.2433   0.07939   0.07384  -0.0130   0.0154   0.9999
  15.400   1.2416   0.08106   0.07557  -0.0135   0.0152   0.9999
  15.500   1.2399   0.08273   0.07730  -0.0140   0.0150   0.9999
  15.600   1.2382   0.08442   0.07905  -0.0145   0.0149   0.9999
  15.700   1.2364   0.08615   0.08083  -0.0150   0.0147   0.9999
  15.800   1.2346   0.08789   0.08261  -0.0156   0.0145   0.9999
  15.900   1.2328   0.08963   0.08440  -0.0162   0.0144   0.9999
  16.000   1.2311   0.09137   0.08618  -0.0168   0.0142   0.9999
  16.100   1.2295   0.09308   0.08793  -0.0174   0.0141   0.9999
  16.200   1.2280   0.09478   0.08966  -0.0180   0.0140   0.9999
  16.300   1.2268   0.09641   0.09133  -0.0186   0.0138   0.9999
  16.400   1.2259   0.09797   0.09290  -0.0190   0.0137   0.9999
  16.500   1.2252   0.09947   0.09442  -0.0194   0.0136   0.9999
  16.600   1.2246   0.10089   0.09585  -0.0197   0.0134   0.9999
  16.700   1.2243   0.10220   0.09719  -0.0197   0.0133   0.9999
  16.800   1.2237   0.10354   0.09855  -0.0196   0.0132   0.9999
  16.900   1.2200   0.10577   0.10085  -0.0206   0.0132   0.9999
  17.000   1.2163   0.10805   0.10321  -0.0217   0.0131   0.9999
  17.100   1.2122   0.11044   0.10568  -0.0230   0.0131   0.9999
  17.200   1.2084   0.11279   0.10811  -0.0242   0.0131   0.9999
  17.300   1.2042   0.11524   0.11064  -0.0255   0.0131   0.9999
  17.400   1.2000   0.11771   0.11319  -0.0268   0.0130   0.9999
  17.500   1.1957   0.12024   0.11579  -0.0282   0.0130   0.9999
  17.600   1.1914   0.12279   0.11841  -0.0296   0.0130   0.9999
  17.700   1.1869   0.12541   0.12111  -0.0311   0.0130   0.9999
  17.800   1.1822   0.12811   0.12388  -0.0327   0.0130   0.9999
  17.900   1.1773   0.13092   0.12677  -0.0344   0.0130   0.9999
  18.000   1.1725   0.13371   0.12964  -0.0361   0.0130   0.9999
  18.100   1.1679   0.13648   0.13247  -0.0378   0.0130   0.9999
  18.200   1.1630   0.13938   0.13545  -0.0396   0.0130   0.9999
  18.300   1.1578   0.14239   0.13853  -0.0416   0.0130   0.9999
  18.400   1.1527   0.14541   0.14161  -0.0435   0.0130   0.9999
  18.500   1.1477   0.14845   0.14472  -0.0455   0.0130   0.9999
  18.600   1.1424   0.15162   0.14795  -0.0476   0.0130   0.9999
  18.700   1.1371   0.15480   0.15119  -0.0498   0.0131   0.9999
  18.800   1.1321   0.15799   0.15445  -0.0519   0.0131   0.9999
  18.900   1.1269   0.16127   0.15778  -0.0542   0.0131   0.9999
  19.000   1.1213   0.16470   0.16125  -0.0565   0.0131   0.9999
  19.100   1.1165   0.16795   0.16456  -0.0587   0.0132   0.9999
  19.200   1.1108   0.17150   0.16817  -0.0612   0.0132   0.9999
