  
       XFOIL         Version 6.99
  
 Calculated polar for: s1075                                           
  
 1 1 Reynolds number fixed          Mach number fixed         
  
 xtrf =   1.000 (top)        1.000 (bottom)  
 Mach =   0.000     Re =     0.030 e 6     Ncrit =   9.000
  
   alpha    CL        CD       CDp       CM     Top_Xtr  Bot_Xtr
  ------ -------- --------- --------- -------- -------- --------
   0.000  -0.0267   0.02861   0.01569  -0.0130   1.0001   0.9999
   0.100  -0.0206   0.02893   0.01594  -0.0130   1.0001   0.9999
   0.200  -0.0144   0.02925   0.01620  -0.0130   1.0001   0.9999
   0.300  -0.0082   0.02959   0.01647  -0.0130   1.0001   0.9999
   0.400  -0.0020   0.02993   0.01676  -0.0131   1.0001   0.9999
   0.500   0.0042   0.03029   0.01706  -0.0131   1.0001   0.9999
   0.600   0.0104   0.03066   0.01738  -0.0132   1.0001   0.9999
   0.700   0.0167   0.03103   0.01770  -0.0133   1.0001   0.9999
   0.800   0.0229   0.03142   0.01804  -0.0134   1.0001   0.9999
   0.900   0.0291   0.03182   0.01840  -0.0135   1.0001   0.9999
   1.000   0.0354   0.03223   0.01876  -0.0137   1.0001   0.9999
   1.100   0.0416   0.03265   0.01914  -0.0138   1.0001   0.9999
   1.200   0.0478   0.03309   0.01954  -0.0140   1.0001   0.9999
   1.300   0.0540   0.03353   0.01994  -0.0141   1.0001   0.9999
   1.400   0.0602   0.03398   0.02035  -0.0143   1.0001   0.9999
   1.500   0.0663   0.03445   0.02079  -0.0145   1.0001   0.9999
   1.600   0.0763   0.03498   0.02129  -0.0154   0.9983   0.9999
   1.700   0.1031   0.03586   0.02213  -0.0195   0.9896   0.9999
   1.800   0.1271   0.03667   0.02290  -0.0230   0.9810   0.9999
   1.900   0.1484   0.03740   0.02360  -0.0259   0.9724   0.9999
   2.000   0.1680   0.03810   0.02429  -0.0285   0.9639   0.9999
   2.100   0.1868   0.03880   0.02496  -0.0309   0.9555   0.9999
   2.200   0.2057   0.03950   0.02565  -0.0333   0.9471   0.9999
   2.300   0.2251   0.04021   0.02636  -0.0357   0.9388   0.9999
   2.400   0.2455   0.04094   0.02708  -0.0383   0.9303   0.9999
   2.500   0.2610   0.04159   0.02773  -0.0399   0.9221   0.9999
   2.600   0.2744   0.04222   0.02836  -0.0412   0.9141   0.9999
   2.700   0.2896   0.04288   0.02904  -0.0427   0.9060   0.9999
   2.800   0.3067   0.04357   0.02973  -0.0445   0.8980   0.9999
   2.900   0.3258   0.04428   0.03045  -0.0466   0.8897   0.9999
   3.000   0.3354   0.04490   0.03109  -0.0472   0.8821   0.9999
   3.100   0.3468   0.04556   0.03176  -0.0480   0.8745   0.9999
   3.200   0.3616   0.04624   0.03246  -0.0493   0.8667   0.9999
   3.300   0.3794   0.04694   0.03319  -0.0510   0.8587   0.9999
   3.400   0.3873   0.04760   0.03386  -0.0513   0.8514   0.9999
   3.500   0.3971   0.04829   0.03457  -0.0518   0.8440   0.9999
   3.600   0.4114   0.04899   0.03529  -0.0529   0.8365   0.9999
   3.700   0.4277   0.04968   0.03603  -0.0543   0.8287   0.9999
   3.800   0.4309   0.05039   0.03675  -0.0538   0.8220   0.9999
   3.900   0.4420   0.05112   0.03750  -0.0545   0.8149   0.9999
   4.000   0.4583   0.05182   0.03825  -0.0557   0.8072   0.9999
   4.100   0.4620   0.05258   0.03902  -0.0554   0.8007   0.9999
   4.200   0.4709   0.05334   0.03981  -0.0557   0.7939   0.9999
   4.300   0.4864   0.05406   0.04058  -0.0568   0.7864   0.9999
   4.400   0.4894   0.05486   0.04140  -0.0564   0.7802   0.9999
   4.500   0.4979   0.05566   0.04223  -0.0567   0.7736   0.9999
   4.600   0.5138   0.05639   0.04301  -0.0577   0.7661   0.9999
   4.700   0.5132   0.05727   0.04391  -0.0570   0.7606   0.9999
   4.800   0.5237   0.05808   0.04475  -0.0575   0.7539   0.9999
   4.900   0.5350   0.05887   0.04560  -0.0580   0.7471   0.9999
   5.000   0.5357   0.05981   0.04655  -0.0575   0.7417   0.9999
   5.100   0.5494   0.06059   0.04739  -0.0582   0.7345   0.9999
   5.200   0.5495   0.06157   0.04838  -0.0576   0.7295   0.9999
   5.300   0.5591   0.06243   0.04929  -0.0580   0.7231   0.9999
   5.400   0.5667   0.06332   0.05022  -0.0581   0.7169   0.9999
   5.500   0.5694   0.06432   0.05124  -0.0579   0.7118   0.9999
   5.600   0.5848   0.06512   0.05211  -0.0587   0.7045   0.9999
   5.700   0.5798   0.06626   0.05325  -0.0578   0.7008   0.9999
   5.800   0.5936   0.06711   0.05418  -0.0584   0.6938   0.9999
   5.900   0.5898   0.06828   0.05536  -0.0578   0.6903   0.9999
   6.000   0.6029   0.06916   0.05630  -0.0583   0.6834   0.9999
   6.100   0.5994   0.07036   0.05750  -0.0578   0.6800   0.9999
   6.200   0.6125   0.07128   0.05849  -0.0583   0.6733   0.9999
   6.300   0.6084   0.07252   0.05974  -0.0578   0.6704   0.9999
   6.400   0.6222   0.07344   0.06073  -0.0583   0.6633   0.9999
   6.500   0.6175   0.07474   0.06204  -0.0578   0.6610   0.9999
   6.600   0.6191   0.07594   0.06327  -0.0578   0.6574   0.9999
   6.700   0.6273   0.07703   0.06441  -0.0580   0.6519   0.9999
   6.800   0.6251   0.07833   0.06573  -0.0578   0.6495   0.9999
   6.900   0.6381   0.07937   0.06686  -0.0583   0.6428   0.9999
   7.000   0.6347   0.08077   0.06826  -0.0581   0.6415   0.9999
   7.100   0.6328   0.08213   0.06965  -0.0579   0.6399   0.9999
   7.200   0.6331   0.08347   0.07102  -0.0580   0.6380   0.9999
   7.300   0.6437   0.08467   0.07228  -0.0584   0.6322   0.9999
   7.400   0.6426   0.08614   0.07377  -0.0585   0.6318   0.9999
   7.500   0.6419   0.08761   0.07527  -0.0586   0.6316   0.9999
   7.600   0.6418   0.08911   0.07680  -0.0589   0.6317   0.9999
   7.700   0.6432   0.09067   0.07840  -0.0593   0.6323   0.9999
