  
       XFOIL         Version 6.99
  
 Calculated polar for: s1075                                           
  
 1 1 Reynolds number fixed          Mach number fixed         
  
 xtrf =   1.000 (top)        1.000 (bottom)  
 Mach =   0.000     Re =     0.040 e 6     Ncrit =   9.000
  
   alpha    CL        CD       CDp       CM     Top_Xtr  Bot_Xtr
  ------ -------- --------- --------- -------- -------- --------
   0.000  -0.0317   0.02660   0.01551  -0.0137   1.0001   0.9999
   0.100  -0.0085   0.02705   0.01587  -0.0169   0.9938   0.9999
   0.200   0.0160   0.02752   0.01626  -0.0202   0.9866   0.9999
   0.300   0.0405   0.02798   0.01664  -0.0235   0.9794   0.9999
   0.400   0.0638   0.02841   0.01699  -0.0265   0.9719   0.9999
   0.500   0.0846   0.02880   0.01733  -0.0291   0.9641   0.9999
   0.600   0.1056   0.02920   0.01767  -0.0316   0.9565   0.9999
   0.700   0.1280   0.02960   0.01801  -0.0343   0.9491   0.9999
   0.800   0.1510   0.02998   0.01835  -0.0371   0.9417   0.9999
   0.900   0.1683   0.03033   0.01867  -0.0388   0.9337   0.9999
   1.000   0.1869   0.03069   0.01899  -0.0407   0.9259   0.9999
   1.100   0.2079   0.03104   0.01931  -0.0430   0.9185   0.9999
   1.200   0.2299   0.03137   0.01961  -0.0454   0.9111   0.9999
   1.300   0.2448   0.03171   0.01994  -0.0466   0.9030   0.9999
   1.400   0.2615   0.03205   0.02026  -0.0480   0.8952   0.9999
   1.500   0.2820   0.03235   0.02056  -0.0501   0.8879   0.9999
   1.600   0.3031   0.03263   0.02083  -0.0521   0.8805   0.9999
   1.700   0.3157   0.03299   0.02118  -0.0528   0.8725   0.9999
   1.800   0.3313   0.03332   0.02151  -0.0539   0.8649   0.9999
   1.900   0.3531   0.03356   0.02175  -0.0559   0.8577   0.9999
   2.000   0.3701   0.03384   0.02205  -0.0572   0.8502   0.9999
   2.100   0.3815   0.03422   0.02242  -0.0575   0.8424   0.9999
   2.200   0.3966   0.03453   0.02274  -0.0584   0.8350   0.9999
   2.300   0.4191   0.03466   0.02289  -0.0601   0.8284   0.9999
   2.400   0.4267   0.03510   0.02334  -0.0599   0.8204   0.9999
   2.500   0.4375   0.03549   0.02373  -0.0601   0.8129   0.9999
   2.600   0.4547   0.03570   0.02396  -0.0610   0.8061   0.9999
   2.700   0.4680   0.03600   0.02427  -0.0614   0.7989   0.9999
   2.800   0.4760   0.03646   0.02474  -0.0611   0.7912   0.9999
   2.900   0.4891   0.03676   0.02507  -0.0614   0.7843   0.9999
   3.000   0.5057   0.03693   0.02526  -0.0621   0.7776   0.9999
   3.100   0.5116   0.03747   0.02581  -0.0616   0.7699   0.9999
   3.200   0.5223   0.03784   0.02620  -0.0616   0.7629   0.9999
   3.300   0.5401   0.03791   0.02630  -0.0621   0.7567   0.9999
   3.400   0.5447   0.03853   0.02694  -0.0615   0.7489   0.9999
   3.500   0.5538   0.03896   0.02739  -0.0613   0.7419   0.9999
   3.600   0.5718   0.03897   0.02743  -0.0617   0.7359   0.9999
   3.700   0.5754   0.03966   0.02814  -0.0611   0.7282   0.9999
   3.800   0.5837   0.04014   0.02864  -0.0608   0.7212   0.9999
   3.900   0.6013   0.04011   0.02866  -0.0610   0.7154   0.9999
   4.000   0.6043   0.04088   0.02945  -0.0604   0.7077   0.9999
   4.100   0.6124   0.04137   0.02997  -0.0601   0.7009   0.9999
   4.200   0.6290   0.04135   0.02998  -0.0601   0.6950   0.9999
   4.300   0.6315   0.04219   0.03084  -0.0595   0.6875   0.9999
   4.400   0.6400   0.04266   0.03135  -0.0592   0.6808   0.9999
   4.500   0.6550   0.04269   0.03142  -0.0590   0.6749   0.9999
   4.700   0.6672   0.04398   0.03278  -0.0582   0.6612   0.9999
   4.800   0.6795   0.04417   0.03302  -0.0579   0.6549   0.9999
   4.900   0.6819   0.04510   0.03398  -0.0574   0.6477   0.9999
   5.000   0.6952   0.04523   0.03415  -0.0571   0.6419   0.9999
   5.100   0.7023   0.04582   0.03478  -0.0567   0.6351   0.9999
   5.200   0.7057   0.04671   0.03570  -0.0563   0.6283   0.9999
   5.300   0.7254   0.04627   0.03533  -0.0559   0.6231   0.9999
   5.400   0.7233   0.04765   0.03674  -0.0555   0.6156   0.9999
   5.500   0.7295   0.04834   0.03747  -0.0551   0.6092   0.9999
   5.600   0.7450   0.04822   0.03741  -0.0546   0.6034   0.9999
   5.700   0.7430   0.04964   0.03886  -0.0543   0.5965   0.9999
   5.800   0.7557   0.04977   0.03904  -0.0538   0.5906   0.9999
   5.900   0.7620   0.05045   0.03977  -0.0534   0.5841   0.9999
   6.000   0.7628   0.05167   0.04102  -0.0530   0.5777   0.9999
   6.100   0.7844   0.05094   0.04038  -0.0524   0.5722   0.9999
   6.200   0.7766   0.05299   0.04245  -0.0522   0.5653   0.9999
   6.300   0.7857   0.05345   0.04296  -0.0517   0.5594   0.9999
   6.400   0.7949   0.05388   0.04345  -0.0512   0.5533   0.9999
   6.500   0.7915   0.05557   0.04517  -0.0510   0.5471   0.9999
   6.600   0.8177   0.05430   0.04398  -0.0500   0.5413   0.9999
   6.700   0.8019   0.05726   0.04696  -0.0502   0.5351   0.9999
   6.800   0.8132   0.05751   0.04726  -0.0496   0.5292   0.9999
   6.900   0.8171   0.05848   0.04829  -0.0492   0.5232   0.9999
   7.000   0.8138   0.06022   0.05004  -0.0490   0.5176   0.9999
   7.100   0.8403   0.05885   0.04881  -0.0479   0.5112   0.9999
   7.200   0.8159   0.06282   0.05274  -0.0485   0.5064   0.9999
   7.300   0.8403   0.06168   0.05171  -0.0474   0.4998   0.9999
   7.400   0.8176   0.06550   0.05548  -0.0480   0.4955   0.9999
   7.500   0.8370   0.06492   0.05500  -0.0471   0.4891   0.9999
   7.600   0.8142   0.06858   0.05861  -0.0475   0.4857   0.9999
   7.700   0.8343   0.06808   0.05822  -0.0468   0.4788   0.9999
   7.800   0.8119   0.07160   0.06167  -0.0471   0.4761   0.9999
   7.900   0.8332   0.07100   0.06120  -0.0462   0.4691   0.9999
   8.000   0.8115   0.07454   0.06467  -0.0467   0.4668   0.9999
   8.200   0.8125   0.07737   0.06756  -0.0463   0.4573   0.9999
   8.300   0.8073   0.07937   0.06956  -0.0464   0.4536   0.9999
   8.400   0.8154   0.08012   0.07038  -0.0460   0.4481   0.9999
   8.500   0.8032   0.08282   0.07305  -0.0465   0.4458   0.9999
   8.600   0.8187   0.08283   0.07316  -0.0457   0.4386   0.9999
   8.700   0.8051   0.08571   0.07600  -0.0463   0.4368   0.9999
   8.800   0.7996   0.08783   0.07813  -0.0466   0.4340   0.9999
   8.900   0.8098   0.08845   0.07883  -0.0461   0.4281   0.9999
   9.000   0.7995   0.09106   0.08141  -0.0467   0.4265   0.9999
   9.100   0.7956   0.09303   0.08340  -0.0470   0.4237   0.9999
   9.200   0.8039   0.09385   0.08428  -0.0465   0.4177   0.9999
   9.300   0.7958   0.09632   0.08675  -0.0472   0.4167   0.9999
   9.400   0.7899   0.09860   0.08903  -0.0477   0.4155   0.9999
   9.700   0.7887   0.10385   0.09437  -0.0483   0.4068   0.9999
   9.800   0.7842   0.10610   0.09661  -0.0490   0.4065   0.9999
   9.900   0.7808   0.10833   0.09888  -0.0497   0.4067   0.9999
  10.000   0.7781   0.11053   0.10110  -0.0503   0.4072   0.9999
  10.100   0.7764   0.11271   0.10330  -0.0510   0.4078   0.9999
  10.200   0.7761   0.11486   0.10547  -0.0517   0.4085   0.9999
  10.300   0.7785   0.11702   0.10769  -0.0523   0.4095   0.9999
