  
       XFOIL         Version 6.99
  
 Calculated polar for: s1075                                           
  
 1 1 Reynolds number fixed          Mach number fixed         
  
 xtrf =   1.000 (top)        1.000 (bottom)  
 Mach =   0.000     Re =     0.050 e 6     Ncrit =   9.000
  
   alpha    CL        CD       CDp       CM     Top_Xtr  Bot_Xtr
  ------ -------- --------- --------- -------- -------- --------
   0.000   0.1234   0.02471   0.01463  -0.0408   0.9366   0.9999
   0.100   0.1500   0.02485   0.01471  -0.0440   0.9310   0.9999
   0.200   0.1673   0.02503   0.01484  -0.0455   0.9232   0.9999
   0.300   0.1871   0.02518   0.01495  -0.0475   0.9162   0.9999
   0.400   0.2152   0.02524   0.01498  -0.0508   0.9107   0.9999
   0.500   0.2315   0.02541   0.01512  -0.0520   0.9030   0.9999
   0.600   0.2499   0.02555   0.01522  -0.0536   0.8959   0.9999
   0.700   0.2743   0.02558   0.01523  -0.0560   0.8903   0.9999
   0.800   0.2877   0.02577   0.01539  -0.0566   0.8824   0.9999
   0.900   0.3033   0.02592   0.01552  -0.0575   0.8752   0.9999
   1.000   0.3257   0.02592   0.01550  -0.0594   0.8696   0.9999
   1.100   0.3370   0.02613   0.01570  -0.0596   0.8616   0.9999
   1.200   0.3502   0.02630   0.01586  -0.0600   0.8543   0.9999
   1.300   0.3697   0.02631   0.01584  -0.0612   0.8486   0.9999
   1.400   0.3801   0.02653   0.01606  -0.0611   0.8408   0.9999
   1.500   0.3914   0.02673   0.01625  -0.0611   0.8333   0.9999
   1.600   0.4076   0.02677   0.01627  -0.0617   0.8274   0.9999
   1.700   0.4183   0.02697   0.01647  -0.0616   0.8200   0.9999
   1.800   0.4283   0.02720   0.01669  -0.0614   0.8125   0.9999
   1.900   0.4426   0.02726   0.01674  -0.0616   0.8066   0.9999
   2.000   0.4529   0.02746   0.01694  -0.0613   0.7994   0.9999
   2.100   0.4622   0.02771   0.01719  -0.0610   0.7919   0.9999
   2.200   0.4756   0.02776   0.01723  -0.0609   0.7862   0.9999
   2.300   0.4850   0.02799   0.01746  -0.0606   0.7789   0.9999
   2.400   0.4940   0.02826   0.01772  -0.0602   0.7716   0.9999
   2.500   0.5078   0.02824   0.01770  -0.0600   0.7664   0.9999
   2.600   0.5156   0.02857   0.01804  -0.0595   0.7586   0.9999
   2.700   0.5246   0.02883   0.01830  -0.0591   0.7515   0.9999
   2.800   0.5376   0.02881   0.01828  -0.0588   0.7463   0.9999
   2.900   0.5452   0.02917   0.01865  -0.0583   0.7385   0.9999
   3.000   0.5544   0.02942   0.01890  -0.0579   0.7317   0.9999
   3.100   0.5664   0.02944   0.01893  -0.0574   0.7262   0.9999
   3.200   0.5741   0.02981   0.01931  -0.0570   0.7186   0.9999
   3.300   0.5841   0.02999   0.01950  -0.0565   0.7123   0.9999
   3.400   0.5947   0.03010   0.01962  -0.0561   0.7062   0.9999
   3.500   0.6028   0.03046   0.01999  -0.0556   0.6989   0.9999
   3.600   0.6143   0.03048   0.02002  -0.0551   0.6936   0.9999
   3.700   0.6229   0.03079   0.02035  -0.0547   0.6865   0.9999
   3.800   0.6314   0.03112   0.02070  -0.0543   0.6795   0.9999
   3.900   0.6435   0.03105   0.02063  -0.0536   0.6745   0.9999
   4.000   0.6510   0.03149   0.02111  -0.0533   0.6669   0.9999
   4.100   0.6603   0.03174   0.02137  -0.0528   0.6605   0.9999
   4.200   0.6713   0.03179   0.02144  -0.0522   0.6549   0.9999
   4.300   0.6790   0.03222   0.02190  -0.0519   0.6475   0.9999
   4.400   0.6903   0.03223   0.02191  -0.0513   0.6423   0.9999
   4.500   0.6990   0.03255   0.02227  -0.0509   0.6353   0.9999
   4.600   0.7072   0.03293   0.02269  -0.0505   0.6284   0.9999
   4.700   0.7194   0.03282   0.02258  -0.0498   0.6236   0.9999
   4.900   0.7361   0.03357   0.02341  -0.0490   0.6099   0.9999
   5.000   0.7468   0.03366   0.02351  -0.0485   0.6041   0.9999
   5.100   0.7543   0.03415   0.02405  -0.0481   0.5969   0.9999
   5.200   0.7674   0.03391   0.02380  -0.0474   0.5924   0.9999
   5.400   0.7825   0.03490   0.02490  -0.0467   0.5782   0.9999
   5.500   0.7944   0.03481   0.02483  -0.0461   0.5729   0.9999
   5.600   0.8014   0.03540   0.02548  -0.0458   0.5656   0.9999
   5.700   0.8122   0.03547   0.02557  -0.0452   0.5600   0.9999
   5.800   0.8213   0.03576   0.02590  -0.0447   0.5536   0.9999
   5.900   0.8289   0.03627   0.02647  -0.0444   0.5467   0.9999
   6.000   0.8421   0.03601   0.02619  -0.0436   0.5419   0.9999
   6.100   0.8481   0.03673   0.02700  -0.0434   0.5343   0.9999
   6.200   0.8572   0.03704   0.02735  -0.0429   0.5281   0.9999
   6.300   0.8685   0.03703   0.02737  -0.0423   0.5224   0.9999
   6.400   0.8749   0.03770   0.02813  -0.0420   0.5152   0.9999
   6.500   0.8879   0.03748   0.02790  -0.0413   0.5101   0.9999
   6.600   0.8948   0.03807   0.02856  -0.0409   0.5030   0.9999
   6.700   0.9021   0.03862   0.02918  -0.0405   0.4963   0.9999
   6.800   0.9160   0.03828   0.02882  -0.0398   0.4911   0.9999
   6.900   0.9210   0.03912   0.02977  -0.0395   0.4837   0.9999
   7.100   0.9419   0.03936   0.03008  -0.0384   0.4715   0.9999
   7.200   0.9472   0.04015   0.03096  -0.0380   0.4643   0.9999
   7.300   0.9589   0.04010   0.03093  -0.0374   0.4584   0.9999
   7.400   0.9678   0.04041   0.03130  -0.0369   0.4518   0.9999
   7.500   0.9736   0.04112   0.03209  -0.0364   0.4448   0.9999
   7.600   0.9877   0.04076   0.03171  -0.0358   0.4389   0.9999
   7.700   0.9939   0.04140   0.03244  -0.0353   0.4318   0.9999
   7.800   1.0001   0.04205   0.03317  -0.0348   0.4249   0.9999
   7.900   1.0150   0.04159   0.03269  -0.0341   0.4188   0.9999
   8.000   1.0204   0.04231   0.03352  -0.0336   0.4116   0.9999
   8.100   1.0263   0.04298   0.03427  -0.0331   0.4047   0.9999
   8.200   1.0403   0.04262   0.03389  -0.0325   0.3981   0.9999
   8.300   1.0477   0.04308   0.03442  -0.0319   0.3910   0.9999
   8.400   1.0522   0.04389   0.03534  -0.0314   0.3839   0.9999
   8.500   1.0641   0.04378   0.03523  -0.0307   0.3769   0.9999
   8.600   1.0776   0.04348   0.03493  -0.0301   0.3697   0.9999
   8.700   1.0789   0.04464   0.03624  -0.0295   0.3625   0.9999
   8.800   1.0872   0.04495   0.03659  -0.0289   0.3552   0.9999
   8.900   1.1011   0.04460   0.03621  -0.0283   0.3476   0.9999
   9.000   1.1111   0.04468   0.03631  -0.0276   0.3398   0.9999
   9.100   1.1124   0.04577   0.03754  -0.0269   0.3327   0.9999
   9.200   1.1208   0.04605   0.03786  -0.0263   0.3251   0.9999
   9.300   1.1329   0.04587   0.03766  -0.0256   0.3169   0.9999
   9.400   1.1462   0.04556   0.03729  -0.0251   0.3083   0.9999
   9.500   1.1489   0.04642   0.03827  -0.0243   0.3009   0.9999
   9.600   1.1524   0.04720   0.03917  -0.0235   0.2934   0.9999
   9.700   1.1610   0.04740   0.03938  -0.0228   0.2852   0.9999
   9.800   1.1712   0.04743   0.03938  -0.0221   0.2767   0.9999
   9.900   1.1817   0.04739   0.03931  -0.0215   0.2677   0.9999
  10.000   1.1923   0.04738   0.03924  -0.0209   0.2587   0.9999
  10.100   1.1917   0.04851   0.04054  -0.0199   0.2518   0.9999
  10.200   1.1950   0.04925   0.04135  -0.0190   0.2443   0.9999
  10.300   1.2022   0.04956   0.04166  -0.0183   0.2359   0.9999
  10.500   1.2183   0.04995   0.04195  -0.0168   0.2182   0.9999
  10.600   1.2267   0.05014   0.04208  -0.0161   0.2092   0.9999
  10.700   1.2225   0.05153   0.04368  -0.0149   0.2039   0.9999
  10.800   1.2261   0.05217   0.04433  -0.0141   0.1966   0.9999
  10.900   1.2330   0.05252   0.04463  -0.0133   0.1884   0.9999
  11.300   1.2483   0.05522   0.04726  -0.0100   0.1611   0.9999
  11.400   1.2391   0.05702   0.04931  -0.0087   0.1590   0.9999
  11.700   1.2495   0.05948   0.05169  -0.0065   0.1424   0.9999
  11.800   1.2392   0.06131   0.05373  -0.0052   0.1414   0.9999
  11.900   1.2291   0.06312   0.05571  -0.0041   0.1404   0.9999
  12.000   1.2188   0.06485   0.05758  -0.0030   0.1396   0.9999
  12.100   1.2081   0.06657   0.05941  -0.0019   0.1390   0.9999
  12.200   1.1969   0.06846   0.06140  -0.0011   0.1386   0.9999
  12.300   1.2083   0.06880   0.06164  -0.0005   0.1322   0.9999
  12.400   1.1965   0.07082   0.06376   0.0001   0.1322   0.9999
  12.500   1.1844   0.07300   0.06604   0.0004   0.1322   0.9999
  12.600   1.1722   0.07534   0.06848   0.0003   0.1324   0.9999
  12.700   1.1599   0.07786   0.07108   0.0000   0.1327   0.9999
  12.800   1.1476   0.08054   0.07383  -0.0005   0.1330   0.9999
  12.900   1.1352   0.08338   0.07673  -0.0013   0.1333   0.9999
  13.000   1.1229   0.08638   0.07979  -0.0024   0.1337   0.9999
