  
       XFOIL         Version 6.99
  
 Calculated polar for: s1075                                           
  
 1 1 Reynolds number fixed          Mach number fixed         
  
 xtrf =   1.000 (top)        1.000 (bottom)  
 Mach =   0.000     Re =     0.500 e 6     Ncrit =   9.000
  
   alpha    CL        CD       CDp       CM     Top_Xtr  Bot_Xtr
  ------ -------- --------- --------- -------- -------- --------
 -10.000  -0.7779   0.04936   0.04665  -0.0339   1.0001   0.0123
  -9.900  -0.7834   0.04755   0.04474  -0.0338   1.0001   0.0122
  -9.800  -0.7884   0.04561   0.04268  -0.0336   1.0001   0.0120
  -9.700  -0.7939   0.04339   0.04032  -0.0333   1.0001   0.0119
  -9.600  -0.7999   0.04084   0.03757  -0.0328   1.0001   0.0116
  -9.500  -0.8335   0.03210   0.02771  -0.0302   1.0001   0.0105
  -9.400  -0.8279   0.03110   0.02661  -0.0299   1.0001   0.0106
  -9.300  -0.8198   0.03068   0.02620  -0.0298   1.0001   0.0108
  -9.200  -0.8117   0.03020   0.02570  -0.0297   1.0001   0.0109
  -9.100  -0.8038   0.02962   0.02508  -0.0295   1.0001   0.0110
  -9.000  -0.7962   0.02895   0.02434  -0.0293   1.0001   0.0112
  -8.900  -0.7891   0.02808   0.02335  -0.0290   1.0001   0.0112
  -8.800  -0.7818   0.02720   0.02236  -0.0287   1.0001   0.0113
  -8.700  -0.7741   0.02635   0.02139  -0.0284   1.0001   0.0114
  -8.600  -0.7663   0.02545   0.02037  -0.0281   1.0001   0.0115
  -8.500  -0.7582   0.02460   0.01940  -0.0278   1.0001   0.0116
  -8.400  -0.7498   0.02378   0.01846  -0.0275   1.0001   0.0116
  -8.300  -0.7411   0.02302   0.01760  -0.0273   1.0001   0.0117
  -8.200  -0.7321   0.02233   0.01679  -0.0270   1.0001   0.0118
  -8.100  -0.7229   0.02167   0.01605  -0.0268   1.0001   0.0119
  -8.000  -0.7135   0.02108   0.01537  -0.0266   1.0001   0.0120
  -7.900  -0.7039   0.02051   0.01472  -0.0264   1.0001   0.0122
  -7.800  -0.6941   0.01999   0.01413  -0.0263   1.0001   0.0123
  -7.700  -0.6842   0.01952   0.01358  -0.0261   1.0001   0.0125
  -7.600  -0.6742   0.01907   0.01307  -0.0260   1.0001   0.0126
  -7.500  -0.6639   0.01871   0.01263  -0.0258   1.0001   0.0127
  -7.400  -0.6537   0.01830   0.01217  -0.0257   1.0001   0.0129
  -7.300  -0.6449   0.01752   0.01138  -0.0255   1.0001   0.0131
  -7.200  -0.6352   0.01705   0.01091  -0.0254   1.0001   0.0134
  -7.100  -0.6251   0.01672   0.01056  -0.0253   1.0001   0.0136
  -7.000  -0.6147   0.01645   0.01028  -0.0253   1.0001   0.0140
  -6.900  -0.6041   0.01619   0.01002  -0.0253   1.0001   0.0144
  -6.800  -0.5937   0.01591   0.00971  -0.0252   1.0001   0.0147
  -6.700  -0.5831   0.01565   0.00942  -0.0251   1.0001   0.0152
  -6.600  -0.5724   0.01540   0.00913  -0.0251   1.0001   0.0155
  -6.500  -0.5618   0.01517   0.00886  -0.0250   1.0001   0.0158
  -6.400  -0.5525   0.01459   0.00829  -0.0248   1.0001   0.0163
  -6.300  -0.5424   0.01427   0.00798  -0.0248   1.0001   0.0168
  -6.200  -0.5322   0.01402   0.00772  -0.0247   1.0001   0.0173
  -6.100  -0.5220   0.01379   0.00748  -0.0246   1.0001   0.0179
  -5.900  -0.4950   0.01322   0.00686  -0.0258   0.9931   0.0196
  -5.800  -0.4808   0.01290   0.00655  -0.0266   0.9883   0.0208
  -5.700  -0.4667   0.01270   0.00633  -0.0272   0.9820   0.0223
  -5.600  -0.4533   0.01240   0.00602  -0.0278   0.9750   0.0241
  -5.500  -0.4403   0.01218   0.00580  -0.0282   0.9674   0.0262
  -5.400  -0.4280   0.01196   0.00555  -0.0284   0.9592   0.0288
  -5.300  -0.4168   0.01176   0.00536  -0.0284   0.9502   0.0317
  -5.200  -0.4065   0.01159   0.00517  -0.0281   0.9410   0.0352
  -5.100  -0.3967   0.01145   0.00503  -0.0277   0.9318   0.0394
  -5.000  -0.3871   0.01128   0.00487  -0.0273   0.9228   0.0452
  -4.900  -0.3775   0.01111   0.00472  -0.0269   0.9142   0.0529
  -4.800  -0.3678   0.01095   0.00458  -0.0266   0.9061   0.0628
  -4.700  -0.3580   0.01080   0.00444  -0.0263   0.8986   0.0738
  -4.600  -0.3479   0.01066   0.00433  -0.0260   0.8911   0.0851
  -4.500  -0.3376   0.01052   0.00422  -0.0258   0.8837   0.0972
  -4.400  -0.3272   0.01040   0.00412  -0.0257   0.8769   0.1101
  -4.300  -0.3169   0.01027   0.00402  -0.0255   0.8703   0.1237
  -4.200  -0.3062   0.01014   0.00393  -0.0254   0.8636   0.1381
  -4.100  -0.2956   0.01002   0.00384  -0.0253   0.8573   0.1528
  -4.000  -0.2848   0.00991   0.00375  -0.0253   0.8510   0.1675
  -3.900  -0.2740   0.00980   0.00367  -0.0252   0.8449   0.1819
  -3.800  -0.2632   0.00969   0.00359  -0.0251   0.8391   0.1968
  -3.700  -0.2521   0.00959   0.00351  -0.0251   0.8329   0.2115
  -3.600  -0.2412   0.00949   0.00344  -0.0251   0.8274   0.2270
  -3.500  -0.2301   0.00939   0.00337  -0.0251   0.8214   0.2431
  -3.400  -0.2190   0.00930   0.00331  -0.0251   0.8160   0.2599
  -3.300  -0.2079   0.00919   0.00324  -0.0251   0.8103   0.2771
  -3.200  -0.1968   0.00909   0.00318  -0.0251   0.8049   0.2966
  -3.100  -0.1858   0.00898   0.00312  -0.0251   0.7994   0.3184
  -3.000  -0.1746   0.00887   0.00307  -0.0252   0.7941   0.3404
  -2.900  -0.1635   0.00878   0.00302  -0.0252   0.7888   0.3603
  -2.800  -0.1523   0.00869   0.00297  -0.0252   0.7835   0.3794
  -2.700  -0.1411   0.00861   0.00293  -0.0252   0.7783   0.3977
  -2.600  -0.1297   0.00854   0.00288  -0.0253   0.7730   0.4153
  -2.500  -0.1185   0.00847   0.00284  -0.0253   0.7680   0.4322
  -2.400  -0.1071   0.00840   0.00280  -0.0253   0.7628   0.4486
  -2.300  -0.0958   0.00834   0.00276  -0.0253   0.7577   0.4655
  -2.200  -0.0845   0.00827   0.00273  -0.0254   0.7525   0.4832
  -2.100  -0.0732   0.00821   0.00270  -0.0254   0.7475   0.5012
  -2.000  -0.0619   0.00814   0.00267  -0.0254   0.7424   0.5204
  -1.900  -0.0507   0.00807   0.00264  -0.0254   0.7374   0.5396
  -1.800  -0.0394   0.00801   0.00261  -0.0255   0.7323   0.5592
  -1.700  -0.0281   0.00794   0.00259  -0.0255   0.7272   0.5785
  -1.600  -0.0169   0.00788   0.00257  -0.0255   0.7222   0.5974
  -1.500  -0.0057   0.00782   0.00254  -0.0255   0.7172   0.6161
  -1.400   0.0056   0.00776   0.00252  -0.0254   0.7121   0.6351
  -1.300   0.0167   0.00770   0.00251  -0.0254   0.7070   0.6543
  -1.200   0.0279   0.00764   0.00249  -0.0254   0.7020   0.6739
  -1.100   0.0390   0.00757   0.00247  -0.0253   0.6969   0.6942
  -1.000   0.0500   0.00751   0.00246  -0.0252   0.6919   0.7152
  -0.900   0.0609   0.00744   0.00245  -0.0251   0.6867   0.7363
  -0.800   0.0716   0.00737   0.00244  -0.0250   0.6818   0.7588
  -0.700   0.0822   0.00730   0.00243  -0.0247   0.6766   0.7824
  -0.600   0.0926   0.00723   0.00242  -0.0245   0.6717   0.8077
  -0.500   0.1026   0.00715   0.00241  -0.0241   0.6665   0.8342
  -0.400   0.1123   0.00707   0.00240  -0.0236   0.6617   0.8626
  -0.300   0.1220   0.00699   0.00239  -0.0230   0.6565   0.8926
  -0.200   0.1336   0.00694   0.00237  -0.0229   0.6516   0.9232
  -0.100   0.1504   0.00693   0.00235  -0.0239   0.6460   0.9489
   0.000   0.1682   0.00695   0.00235  -0.0253   0.6404   0.9678
   0.100   0.1848   0.00699   0.00235  -0.0265   0.6348   0.9815
   0.200   0.2019   0.00704   0.00237  -0.0278   0.6292   0.9903
   0.300   0.2196   0.00710   0.00238  -0.0293   0.6236   0.9960
   0.400   0.2384   0.00714   0.00240  -0.0310   0.6176   0.9992
   0.500   0.2504   0.00718   0.00238  -0.0312   0.6126   0.9999
   0.600   0.2612   0.00718   0.00236  -0.0311   0.6070   0.9999
   0.700   0.2718   0.00721   0.00234  -0.0310   0.6021   0.9999
   0.800   0.2826   0.00722   0.00233  -0.0310   0.5965   0.9999
   0.900   0.2933   0.00725   0.00231  -0.0309   0.5916   0.9999
   1.000   0.3041   0.00727   0.00231  -0.0308   0.5861   0.9999
   1.100   0.3148   0.00730   0.00230  -0.0307   0.5811   0.9999
   1.200   0.3256   0.00733   0.00229  -0.0307   0.5756   0.9999
   1.300   0.3364   0.00736   0.00229  -0.0306   0.5706   0.9999
   1.400   0.3473   0.00739   0.00229  -0.0306   0.5651   0.9999
   1.500   0.3581   0.00742   0.00229  -0.0305   0.5601   0.9999
   1.600   0.3690   0.00746   0.00230  -0.0305   0.5547   0.9999
   1.700   0.3800   0.00750   0.00231  -0.0304   0.5496   0.9999
   1.800   0.3910   0.00753   0.00232  -0.0304   0.5441   0.9999
   1.900   0.4020   0.00757   0.00233  -0.0304   0.5390   0.9999
   2.000   0.4130   0.00761   0.00234  -0.0304   0.5336   0.9999
   2.100   0.4240   0.00765   0.00236  -0.0304   0.5284   0.9999
   2.200   0.4351   0.00770   0.00237  -0.0304   0.5231   0.9999
   2.300   0.4462   0.00774   0.00239  -0.0304   0.5178   0.9999
   2.400   0.4573   0.00779   0.00241  -0.0304   0.5126   0.9999
   2.500   0.4685   0.00783   0.00244  -0.0304   0.5072   0.9999
   2.600   0.4796   0.00789   0.00246  -0.0304   0.5020   0.9999
   2.700   0.4909   0.00793   0.00248  -0.0304   0.4966   0.9999
   2.800   0.5020   0.00799   0.00251  -0.0305   0.4915   0.9999
   2.900   0.5133   0.00803   0.00254  -0.0305   0.4860   0.9999
   3.000   0.5244   0.00810   0.00257  -0.0305   0.4809   0.9999
   3.100   0.5357   0.00814   0.00261  -0.0306   0.4754   0.9999
   3.300   0.5582   0.00825   0.00268  -0.0307   0.4647   0.9999
   3.400   0.5693   0.00832   0.00271  -0.0307   0.4598   0.9999
   3.500   0.5806   0.00837   0.00276  -0.0308   0.4542   0.9999
   3.600   0.5918   0.00844   0.00280  -0.0308   0.4492   0.9999
   3.700   0.6031   0.00849   0.00284  -0.0309   0.4437   0.9999
   3.800   0.6144   0.00856   0.00289  -0.0309   0.4386   0.9999
   3.900   0.6256   0.00862   0.00293  -0.0310   0.4331   0.9999
   4.000   0.6369   0.00869   0.00298  -0.0310   0.4279   0.9999
   4.100   0.6481   0.00875   0.00304  -0.0311   0.4225   0.9999
   4.200   0.6594   0.00882   0.00309  -0.0311   0.4174   0.9999
   4.300   0.6706   0.00889   0.00314  -0.0312   0.4119   0.9999
   4.400   0.6819   0.00896   0.00320  -0.0313   0.4068   0.9999
   4.500   0.6931   0.00903   0.00325  -0.0313   0.4015   0.9999
   4.600   0.7043   0.00910   0.00332  -0.0314   0.3962   0.9999
   4.700   0.7155   0.00918   0.00338  -0.0315   0.3910   0.9999
   4.800   0.7268   0.00925   0.00344  -0.0315   0.3857   0.9999
   4.900   0.7380   0.00934   0.00350  -0.0316   0.3803   0.9999
   5.000   0.7492   0.00941   0.00357  -0.0316   0.3748   0.9999
   5.100   0.7603   0.00950   0.00364  -0.0317   0.3696   0.9999
   5.200   0.7716   0.00957   0.00371  -0.0318   0.3640   0.9999
   5.300   0.7826   0.00967   0.00378  -0.0318   0.3588   0.9999
   5.400   0.7939   0.00974   0.00386  -0.0319   0.3532   0.9999
   5.500   0.8049   0.00984   0.00393  -0.0319   0.3481   0.9999
   5.600   0.8161   0.00992   0.00401  -0.0320   0.3426   0.9999
   5.700   0.8272   0.01001   0.00409  -0.0321   0.3374   0.9999
   5.800   0.8383   0.01010   0.00417  -0.0321   0.3318   0.9999
   5.900   0.8494   0.01020   0.00426  -0.0322   0.3265   0.9999
   6.000   0.8604   0.01029   0.00435  -0.0322   0.3210   0.9999
   6.100   0.8715   0.01039   0.00444  -0.0323   0.3156   0.9999
   6.200   0.8825   0.01050   0.00453  -0.0323   0.3101   0.9999
   6.300   0.8935   0.01059   0.00462  -0.0324   0.3046   0.9999
   6.500   0.9155   0.01080   0.00481  -0.0325   0.2934   0.9999
   6.600   0.9263   0.01092   0.00492  -0.0325   0.2880   0.9999
   6.700   0.9373   0.01102   0.00502  -0.0325   0.2820   0.9999
   6.800   0.9482   0.01114   0.00513  -0.0326   0.2764   0.9999
   6.900   0.9590   0.01126   0.00524  -0.0326   0.2706   0.9999
   7.000   0.9699   0.01137   0.00534  -0.0326   0.2651   0.9999
   7.100   0.9805   0.01151   0.00546  -0.0327   0.2595   0.9999
   7.200   0.9914   0.01161   0.00557  -0.0327   0.2539   0.9999
   7.300   1.0021   0.01176   0.00570  -0.0327   0.2485   0.9999
   7.400   1.0129   0.01187   0.00582  -0.0327   0.2428   0.9999
   7.500   1.0235   0.01201   0.00595  -0.0327   0.2374   0.9999
   7.600   1.0341   0.01214   0.00608  -0.0328   0.2316   0.9999
   7.700   1.0447   0.01228   0.00621  -0.0328   0.2253   0.9999
   7.800   1.0551   0.01244   0.00635  -0.0328   0.2184   0.9999
   7.900   1.0655   0.01261   0.00649  -0.0327   0.2109   0.9999
   8.000   1.0759   0.01276   0.00663  -0.0327   0.2034   0.9999
   8.100   1.0862   0.01293   0.00678  -0.0327   0.1962   0.9999
   8.200   1.0964   0.01311   0.00694  -0.0327   0.1896   0.9999
   8.300   1.1067   0.01328   0.00709  -0.0327   0.1831   0.9999
   8.400   1.1169   0.01345   0.00726  -0.0326   0.1769   0.9999
   8.500   1.1269   0.01365   0.00743  -0.0326   0.1706   0.9999
   8.600   1.1370   0.01383   0.00760  -0.0325   0.1639   0.9999
   8.700   1.1470   0.01402   0.00778  -0.0325   0.1575   0.9999
   8.800   1.1568   0.01423   0.00797  -0.0324   0.1508   0.9999
   8.900   1.1665   0.01445   0.00817  -0.0323   0.1437   0.9999
   9.000   1.1762   0.01467   0.00837  -0.0322   0.1365   0.9999
   9.100   1.1857   0.01490   0.00858  -0.0321   0.1291   0.9999
   9.200   1.1950   0.01516   0.00880  -0.0320   0.1212   0.9999
   9.300   1.2041   0.01543   0.00904  -0.0318   0.1133   0.9999
   9.400   1.2131   0.01572   0.00929  -0.0316   0.1055   0.9999
   9.500   1.2218   0.01603   0.00955  -0.0315   0.0977   0.9999
   9.600   1.2307   0.01631   0.00980  -0.0313   0.0903   0.9999
   9.700   1.2394   0.01660   0.01007  -0.0311   0.0836   0.9999
   9.800   1.2480   0.01690   0.01035  -0.0308   0.0774   0.9999
   9.900   1.2562   0.01723   0.01065  -0.0306   0.0715   0.9999
  10.000   1.2646   0.01754   0.01094  -0.0303   0.0656   0.9999
  10.100   1.2729   0.01785   0.01124  -0.0301   0.0603   0.9999
  10.200   1.2807   0.01821   0.01156  -0.0297   0.0551   0.9999
  10.300   1.2884   0.01856   0.01189  -0.0294   0.0500   0.9999
  10.400   1.2961   0.01890   0.01223  -0.0291   0.0454   0.9999
  10.500   1.3032   0.01930   0.01260  -0.0286   0.0410   0.9999
  10.600   1.3103   0.01967   0.01297  -0.0282   0.0369   0.9999
  10.700   1.3173   0.02006   0.01335  -0.0278   0.0335   0.9999
  10.800   1.3236   0.02049   0.01377  -0.0273   0.0302   0.9999
  10.900   1.3305   0.02086   0.01415  -0.0268   0.0277   0.9999
  11.000   1.3365   0.02129   0.01458  -0.0262   0.0253   0.9999
  11.100   1.3424   0.02172   0.01502  -0.0257   0.0234   0.9999
  11.200   1.3484   0.02212   0.01544  -0.0251   0.0217   0.9999
  11.300   1.3523   0.02267   0.01599  -0.0243   0.0201   0.9999
  11.400   1.3581   0.02305   0.01641  -0.0237   0.0188   0.9999
  11.500   1.3628   0.02350   0.01688  -0.0229   0.0176   0.9999
  11.600   1.3651   0.02409   0.01748  -0.0219   0.0166   0.9999
  11.700   1.3686   0.02458   0.01801  -0.0211   0.0156   0.9999
  11.800   1.3722   0.02502   0.01849  -0.0202   0.0148   0.9999
  11.900   1.3734   0.02552   0.01902  -0.0190   0.0141   0.9999
  12.000   1.3727   0.02616   0.01968  -0.0176   0.0136   0.9999
  12.100   1.3707   0.02693   0.02049  -0.0162   0.0131   0.9999
  12.200   1.3733   0.02745   0.02106  -0.0154   0.0126   0.9999
  12.300   1.3750   0.02806   0.02171  -0.0146   0.0121   0.9999
  12.400   1.3765   0.02872   0.02242  -0.0139   0.0117   0.9999
  12.500   1.3776   0.02944   0.02317  -0.0132   0.0114   0.9999
  12.600   1.3774   0.03031   0.02408  -0.0126   0.0111   0.9999
  12.700   1.3753   0.03140   0.02520  -0.0120   0.0108   0.9999
  12.800   1.3729   0.03257   0.02642  -0.0115   0.0106   0.9999
  12.900   1.3746   0.03340   0.02731  -0.0113   0.0104   0.9999
  13.000   1.3755   0.03435   0.02831  -0.0110   0.0102   0.9999
  13.100   1.3760   0.03535   0.02936  -0.0108   0.0099   0.9999
  13.200   1.3762   0.03641   0.03047  -0.0107   0.0097   0.9999
  13.300   1.3761   0.03753   0.03164  -0.0106   0.0096   0.9999
  13.400   1.3759   0.03868   0.03283  -0.0106   0.0094   0.9999
  13.500   1.3754   0.03991   0.03410  -0.0107   0.0092   0.9999
  13.600   1.3743   0.04122   0.03546  -0.0108   0.0091   0.9999
  13.700   1.3727   0.04261   0.03689  -0.0109   0.0090   0.9999
  13.800   1.3705   0.04410   0.03842  -0.0111   0.0089   0.9999
  13.900   1.3673   0.04573   0.04010  -0.0114   0.0088   0.9999
  14.000   1.3630   0.04753   0.04194  -0.0118   0.0087   0.9999
  14.100   1.3584   0.04938   0.04384  -0.0121   0.0086   0.9999
  14.200   1.3530   0.05136   0.04587  -0.0126   0.0086   0.9999
  14.300   1.3489   0.05321   0.04776  -0.0130   0.0085   0.9999
  14.400   1.3472   0.05476   0.04937  -0.0134   0.0084   0.9999
  14.500   1.3449   0.05641   0.05107  -0.0138   0.0084   0.9999
  14.600   1.3421   0.05812   0.05284  -0.0142   0.0083   0.9999
  14.700   1.3393   0.05985   0.05462  -0.0147   0.0082   0.9999
  14.800   1.3362   0.06164   0.05647  -0.0152   0.0082   0.9999
  14.900   1.3327   0.06348   0.05836  -0.0157   0.0081   0.9999
  15.000   1.3292   0.06534   0.06027  -0.0162   0.0080   0.9999
  15.100   1.3253   0.06726   0.06224  -0.0168   0.0080   0.9999
  15.200   1.3214   0.06919   0.06422  -0.0174   0.0079   0.9999
  15.300   1.3176   0.07115   0.06623  -0.0180   0.0079   0.9999
  15.400   1.3139   0.07313   0.06826  -0.0186   0.0078   0.9999
  15.500   1.3100   0.07515   0.07032  -0.0193   0.0078   0.9999
  15.600   1.3061   0.07717   0.07239  -0.0200   0.0077   0.9999
  15.700   1.3023   0.07922   0.07449  -0.0207   0.0077   0.9999
  15.800   1.2986   0.08127   0.07659  -0.0214   0.0076   0.9999
  15.900   1.2948   0.08335   0.07871  -0.0222   0.0076   0.9999
  16.000   1.2910   0.08543   0.08083  -0.0229   0.0075   0.9999
  16.100   1.2873   0.08751   0.08295  -0.0237   0.0075   0.9999
  16.200   1.2836   0.08960   0.08508  -0.0245   0.0074   0.9999
  16.300   1.2799   0.09171   0.08723  -0.0253   0.0074   0.9999
  16.400   1.2764   0.09381   0.08937  -0.0261   0.0073   0.9999
  16.500   1.2730   0.09591   0.09150  -0.0269   0.0073   0.9999
  16.600   1.2694   0.09802   0.09365  -0.0277   0.0073   0.9999
  16.700   1.2660   0.10012   0.09579  -0.0286   0.0072   0.9999
  16.800   1.2626   0.10221   0.09791  -0.0294   0.0072   0.9999
  16.900   1.2593   0.10431   0.10004  -0.0302   0.0071   0.9999
  17.000   1.2562   0.10638   0.10215  -0.0311   0.0071   0.9999
  17.100   1.2531   0.10846   0.10426  -0.0320   0.0070   0.9999
  17.200   1.2502   0.11051   0.10634  -0.0328   0.0070   0.9999
  17.300   1.2473   0.11254   0.10839  -0.0337   0.0070   0.9999
  17.400   1.2444   0.11454   0.11041  -0.0345   0.0069   0.9999
  17.500   1.2416   0.11652   0.11242  -0.0353   0.0069   0.9999
  17.600   1.2390   0.11843   0.11435  -0.0360   0.0068   0.9999
  17.700   1.2364   0.12028   0.11622  -0.0367   0.0068   0.9999
  17.800   1.2338   0.12234   0.11832  -0.0377   0.0067   0.9999
  17.900   1.2314   0.12446   0.12049  -0.0387   0.0067   0.9999
  18.000   1.2290   0.12658   0.12266  -0.0398   0.0066   0.9999
  18.100   1.2269   0.12860   0.12472  -0.0408   0.0066   0.9999
  18.200   1.2245   0.13075   0.12693  -0.0419   0.0066   0.9999
  18.300   1.2223   0.13284   0.12906  -0.0429   0.0066   0.9999
  18.400   1.2199   0.13497   0.13124  -0.0441   0.0065   0.9999
  18.500   1.2178   0.13709   0.13340  -0.0452   0.0065   0.9999
  18.600   1.2158   0.13917   0.13552  -0.0463   0.0064   0.9999
  18.700   1.2137   0.14128   0.13768  -0.0475   0.0064   0.9999
  18.800   1.2117   0.14340   0.13985  -0.0487   0.0064   0.9999
  18.900   1.2098   0.14550   0.14199  -0.0498   0.0063   0.9999
  19.000   1.2077   0.14765   0.14419  -0.0511   0.0063   0.9999
  19.100   1.2057   0.14982   0.14640  -0.0524   0.0063   0.9999
  19.200   1.2038   0.15192   0.14854  -0.0536   0.0063   0.9999
  19.300   1.2017   0.15410   0.15077  -0.0549   0.0062   0.9999
  19.400   1.1998   0.15629   0.15299  -0.0562   0.0062   0.9999
  19.500   1.1976   0.15854   0.15529  -0.0576   0.0062   0.9999
  19.600   1.1956   0.16074   0.15754  -0.0590   0.0062   0.9999
  19.700   1.1936   0.16302   0.15986  -0.0604   0.0061   0.9999
  19.800   1.1914   0.16532   0.16221  -0.0619   0.0061   0.9999
  19.900   1.1891   0.16768   0.16461  -0.0634   0.0061   0.9999
  20.000   1.1869   0.17005   0.16702  -0.0650   0.0061   0.9999
