  
       XFOIL         Version 6.99
  
 Calculated polar for: s1075                                           
  
 1 1 Reynolds number fixed          Mach number fixed         
  
 xtrf =   1.000 (top)        1.000 (bottom)  
 Mach =   0.000     Re =     0.060 e 6     Ncrit =   9.000
  
   alpha    CL        CD       CDp       CM     Top_Xtr  Bot_Xtr
  ------ -------- --------- --------- -------- -------- --------
   0.000   0.2263   0.02134   0.01211  -0.0561   0.9026   0.9999
   0.100   0.2423   0.02140   0.01213  -0.0570   0.8957   0.9999
   0.200   0.2626   0.02137   0.01206  -0.0586   0.8903   0.9999
   0.300   0.2750   0.02148   0.01214  -0.0589   0.8825   0.9999
   0.400   0.2888   0.02156   0.01218  -0.0594   0.8755   0.9999
   0.500   0.3057   0.02155   0.01214  -0.0602   0.8699   0.9999
   0.600   0.3163   0.02169   0.01224  -0.0601   0.8621   0.9999
   0.700   0.3282   0.02179   0.01231  -0.0601   0.8550   0.9999
   0.800   0.3426   0.02180   0.01229  -0.0604   0.8493   0.9999
   0.900   0.3521   0.02195   0.01242  -0.0601   0.8415   0.9999
   1.000   0.3627   0.02207   0.01251  -0.0599   0.8345   0.9999
   1.100   0.3754   0.02209   0.01251  -0.0597   0.8288   0.9999
   1.200   0.3843   0.02227   0.01266  -0.0593   0.8211   0.9999
   1.300   0.3944   0.02239   0.01277  -0.0589   0.8142   0.9999
   1.400   0.4058   0.02243   0.01278  -0.0586   0.8085   0.9999
   1.500   0.4146   0.02262   0.01295  -0.0581   0.8009   0.9999
   1.600   0.4245   0.02274   0.01305  -0.0577   0.7943   0.9999
   1.700   0.4350   0.02281   0.01309  -0.0572   0.7883   0.9999
   1.900   0.4539   0.02308   0.01334  -0.0562   0.7749   0.9999
   2.000   0.4636   0.02320   0.01344  -0.0557   0.7684   0.9999
   2.100   0.4726   0.02339   0.01362  -0.0553   0.7612   0.9999
   2.200   0.4834   0.02339   0.01358  -0.0546   0.7563   0.9999
   2.300   0.4921   0.02362   0.01382  -0.0543   0.7486   0.9999
   2.400   0.5014   0.02378   0.01398  -0.0538   0.7420   0.9999
   2.500   0.5117   0.02382   0.01399  -0.0532   0.7365   0.9999
   2.600   0.5206   0.02405   0.01422  -0.0528   0.7291   0.9999
   2.700   0.5305   0.02414   0.01430  -0.0522   0.7233   0.9999
   2.800   0.5402   0.02427   0.01442  -0.0517   0.7169   0.9999
   2.900   0.5493   0.02447   0.01463  -0.0514   0.7100   0.9999
   3.000   0.5599   0.02447   0.01460  -0.0507   0.7051   0.9999
   3.100   0.5688   0.02472   0.01487  -0.0504   0.6976   0.9999
   3.200   0.5784   0.02488   0.01502  -0.0499   0.6913   0.9999
   3.300   0.5886   0.02494   0.01507  -0.0494   0.6856   0.9999
   3.400   0.5977   0.02518   0.01533  -0.0490   0.6785   0.9999
   3.500   0.6083   0.02517   0.01530  -0.0484   0.6737   0.9999
   3.600   0.6175   0.02542   0.01557  -0.0481   0.6664   0.9999
   3.700   0.6270   0.02561   0.01577  -0.0477   0.6598   0.9999
   3.800   0.6375   0.02564   0.01578  -0.0471   0.6546   0.9999
   3.900   0.6466   0.02591   0.01607  -0.0468   0.6473   0.9999
   4.000   0.6569   0.02597   0.01613  -0.0463   0.6419   0.9999
   4.200   0.6761   0.02638   0.01658  -0.0456   0.6286   0.9999
   4.300   0.6868   0.02637   0.01654  -0.0450   0.6237   0.9999
   4.400   0.6959   0.02667   0.01688  -0.0448   0.6163   0.9999
   4.500   0.7060   0.02678   0.01700  -0.0443   0.6105   0.9999
   4.600   0.7161   0.02692   0.01714  -0.0439   0.6044   0.9999
   4.700   0.7254   0.02718   0.01744  -0.0436   0.5975   0.9999
   4.800   0.7365   0.02714   0.01738  -0.0430   0.5928   0.9999
   4.900   0.7454   0.02748   0.01777  -0.0428   0.5853   0.9999
   5.000   0.7554   0.02765   0.01795  -0.0424   0.5793   0.9999
   5.100   0.7658   0.02774   0.01804  -0.0420   0.5735   0.9999
   5.200   0.7749   0.02805   0.01840  -0.0417   0.5665   0.9999
   5.300   0.7864   0.02797   0.01828  -0.0411   0.5619   0.9999
   5.500   0.8048   0.02858   0.01900  -0.0406   0.5480   0.9999
   5.600   0.8156   0.02862   0.01903  -0.0401   0.5425   0.9999
   5.700   0.8245   0.02897   0.01944  -0.0399   0.5354   0.9999
   5.800   0.8353   0.02902   0.01948  -0.0394   0.5300   0.9999
   5.900   0.8448   0.02929   0.01979  -0.0391   0.5233   0.9999
   6.000   0.8540   0.02959   0.02013  -0.0388   0.5166   0.9999
   6.100   0.8655   0.02955   0.02008  -0.0383   0.5114   0.9999
   6.200   0.8739   0.02997   0.02058  -0.0381   0.5041   0.9999
   6.300   0.8839   0.03016   0.02079  -0.0377   0.4980   0.9999
   6.400   0.8944   0.03027   0.02090  -0.0373   0.4920   0.9999
   6.500   0.9030   0.03066   0.02137  -0.0370   0.4850   0.9999
   6.600   0.9145   0.03065   0.02132  -0.0366   0.4797   0.9999
   6.700   0.9232   0.03100   0.02175  -0.0363   0.4726   0.9999
   6.800   0.9322   0.03134   0.02216  -0.0359   0.4659   0.9999
   6.900   0.9441   0.03128   0.02204  -0.0355   0.4605   0.9999
   7.000   0.9520   0.03174   0.02261  -0.0352   0.4530   0.9999
   7.100   0.9614   0.03201   0.02292  -0.0348   0.4465   0.9999
   7.200   0.9727   0.03202   0.02290  -0.0344   0.4407   0.9999
   7.300   0.9806   0.03248   0.02345  -0.0340   0.4333   0.9999
   7.400   0.9904   0.03269   0.02369  -0.0337   0.4269   0.9999
   7.500   1.0013   0.03276   0.02374  -0.0332   0.4206   0.9999
   7.600   1.0091   0.03321   0.02430  -0.0329   0.4132   0.9999
   7.700   1.0189   0.03341   0.02453  -0.0325   0.4067   0.9999
   7.800   1.0298   0.03348   0.02457  -0.0321   0.4003   0.9999
   7.900   1.0372   0.03394   0.02514  -0.0317   0.3928   0.9999
   8.000   1.0466   0.03419   0.02542  -0.0312   0.3860   0.9999
   8.100   1.0584   0.03416   0.02533  -0.0308   0.3796   0.9999
   8.200   1.0653   0.03466   0.02595  -0.0304   0.3719   0.9999
   8.300   1.0738   0.03499   0.02633  -0.0299   0.3648   0.9999
   8.400   1.0852   0.03499   0.02629  -0.0295   0.3581   0.9999
   8.500   1.0936   0.03530   0.02666  -0.0291   0.3505   0.9999
   8.600   1.1009   0.03574   0.02719  -0.0286   0.3429   0.9999
   8.700   1.1099   0.03598   0.02745  -0.0281   0.3356   0.9999
   8.800   1.1214   0.03595   0.02734  -0.0277   0.3283   0.9999
   8.900   1.1287   0.03635   0.02782  -0.0272   0.3204   0.9999
   9.000   1.1356   0.03679   0.02835  -0.0266   0.3126   0.9999
   9.100   1.1439   0.03707   0.02866  -0.0261   0.3048   0.9999
   9.200   1.1536   0.03721   0.02875  -0.0256   0.2970   0.9999
   9.300   1.1642   0.03724   0.02873  -0.0252   0.2890   0.9999
   9.400   1.1696   0.03777   0.02937  -0.0245   0.2807   0.9999
   9.500   1.1759   0.03823   0.02991  -0.0239   0.2726   0.9999
   9.600   1.1831   0.03858   0.03028  -0.0233   0.2645   0.9999
   9.700   1.1911   0.03885   0.03053  -0.0227   0.2562   0.9999
   9.800   1.1997   0.03906   0.03069  -0.0222   0.2478   0.9999
   9.900   1.2084   0.03924   0.03079  -0.0217   0.2392   0.9999
  10.000   1.2129   0.03979   0.03143  -0.0209   0.2308   0.9999
  10.100   1.2172   0.04036   0.03209  -0.0201   0.2226   0.9999
  10.200   1.2222   0.04086   0.03261  -0.0193   0.2143   0.9999
  10.300   1.2276   0.04130   0.03305  -0.0186   0.2060   0.9999
  10.400   1.2335   0.04170   0.03342  -0.0178   0.1977   0.9999
  10.500   1.2396   0.04207   0.03371  -0.0172   0.1893   0.9999
  10.600   1.2462   0.04244   0.03397  -0.0166   0.1809   0.9999
  10.700   1.2454   0.04337   0.03511  -0.0154   0.1742   0.9999
  10.800   1.2481   0.04411   0.03587  -0.0144   0.1671   0.9999
  10.900   1.2528   0.04467   0.03637  -0.0137   0.1598   0.9999
  11.000   1.2592   0.04514   0.03669  -0.0131   0.1522   0.9999
  11.100   1.2560   0.04632   0.03812  -0.0118   0.1472   0.9999
  11.200   1.2600   0.04704   0.03877  -0.0111   0.1409   0.9999
  11.300   1.2655   0.04766   0.03928  -0.0104   0.1344   0.9999
  11.500   1.2703   0.04958   0.04121  -0.0088   0.1242   0.9999
  11.600   1.2645   0.05097   0.04287  -0.0074   0.1215   0.9999
  11.700   1.2747   0.05161   0.04328  -0.0072   0.1153   0.9999
  11.800   1.2677   0.05308   0.04502  -0.0058   0.1135   0.9999
  11.900   1.2643   0.05435   0.04645  -0.0046   0.1108   0.9999
  12.000   1.2732   0.05511   0.04705  -0.0044   0.1058   0.9999
  12.100   1.2657   0.05657   0.04873  -0.0030   0.1045   0.9999
  12.200   1.2592   0.05791   0.05023  -0.0017   0.1030   0.9999
  12.300   1.2581   0.05901   0.05137  -0.0008   0.1006   0.9999
  12.400   1.2657   0.06005   0.05230  -0.0006   0.0968   0.9999
  12.500   1.2565   0.06151   0.05393   0.0007   0.0963   0.9999
  12.600   1.2475   0.06306   0.05563   0.0018   0.0956   0.9999
  12.700   1.2388   0.06470   0.05742   0.0026   0.0951   0.9999
  12.800   1.2302   0.06642   0.05927   0.0031   0.0945   0.9999
  12.900   1.2217   0.06821   0.06118   0.0035   0.0939   0.9999
  13.000   1.2134   0.07007   0.06315   0.0037   0.0933   0.9999
  13.100   1.2053   0.07200   0.06517   0.0037   0.0928   0.9999
  13.300   1.1832   0.07667   0.07008   0.0030   0.0930   0.9999
  13.400   1.1696   0.07947   0.07301   0.0022   0.0937   0.9999
  13.500   1.1565   0.08239   0.07603   0.0011   0.0943   0.9999
  13.600   1.1437   0.08540   0.07912  -0.0001   0.0950   0.9999
  13.700   1.1312   0.08852   0.08232  -0.0014   0.0956   0.9999
  13.800   1.1191   0.09173   0.08559  -0.0029   0.0961   0.9999
  13.900   1.1073   0.09503   0.08895  -0.0045   0.0966   0.9999
  14.000   1.0960   0.09841   0.09238  -0.0061   0.0970   0.9999
  14.100   1.0850   0.10188   0.09589  -0.0079   0.0974   0.9999
