  
       XFOIL         Version 6.99
  
 Calculated polar for: s1075                                           
  
 1 1 Reynolds number fixed          Mach number fixed         
  
 xtrf =   1.000 (top)        1.000 (bottom)  
 Mach =   0.000     Re =     0.070 e 6     Ncrit =   9.000
  
   alpha    CL        CD       CDp       CM     Top_Xtr  Bot_Xtr
  ------ -------- --------- --------- -------- -------- --------
   0.000   0.2626   0.01872   0.01013  -0.0588   0.8771   0.9999
   0.200   0.2847   0.01883   0.01016  -0.0586   0.8630   0.9999
   0.300   0.2956   0.01889   0.01017  -0.0583   0.8564   0.9999
   0.400   0.3065   0.01893   0.01017  -0.0580   0.8500   0.9999
   0.500   0.3156   0.01904   0.01025  -0.0576   0.8424   0.9999
   0.600   0.3256   0.01911   0.01028  -0.0572   0.8360   0.9999
   0.700   0.3356   0.01917   0.01029  -0.0567   0.8296   0.9999
   0.800   0.3445   0.01929   0.01038  -0.0562   0.8222   0.9999
   0.900   0.3542   0.01935   0.01041  -0.0556   0.8162   0.9999
   1.000   0.3636   0.01943   0.01046  -0.0551   0.8095   0.9999
   1.100   0.3726   0.01956   0.01055  -0.0546   0.8024   0.9999
   1.200   0.3824   0.01959   0.01054  -0.0539   0.7971   0.9999
   1.300   0.3914   0.01972   0.01066  -0.0535   0.7897   0.9999
   1.400   0.4006   0.01984   0.01074  -0.0529   0.7829   0.9999
   1.500   0.4103   0.01988   0.01074  -0.0523   0.7775   0.9999
   1.600   0.4193   0.02003   0.01088  -0.0519   0.7701   0.9999
   1.700   0.4288   0.02011   0.01093  -0.0513   0.7641   0.9999
   1.800   0.4383   0.02020   0.01099  -0.0508   0.7579   0.9999
   1.900   0.4476   0.02033   0.01112  -0.0503   0.7510   0.9999
   2.000   0.4574   0.02036   0.01109  -0.0496   0.7461   0.9999
   2.100   0.4668   0.02052   0.01126  -0.0493   0.7386   0.9999
   2.200   0.4763   0.02063   0.01134  -0.0489   0.7324   0.9999
   2.300   0.4861   0.02070   0.01138  -0.0483   0.7267   0.9999
   2.400   0.4956   0.02085   0.01153  -0.0480   0.7197   0.9999
   2.500   0.5056   0.02087   0.01151  -0.0473   0.7149   0.9999
   2.600   0.5151   0.02104   0.01169  -0.0470   0.7075   0.9999
   2.700   0.5249   0.02116   0.01179  -0.0466   0.7012   0.9999
   2.800   0.5348   0.02122   0.01182  -0.0461   0.6957   0.9999
   3.000   0.5546   0.02141   0.01199  -0.0452   0.6839   0.9999
   3.100   0.5644   0.02158   0.01217  -0.0450   0.6767   0.9999
   3.200   0.5743   0.02171   0.01229  -0.0446   0.6704   0.9999
   3.300   0.5844   0.02177   0.01232  -0.0441   0.6650   0.9999
   3.400   0.5942   0.02194   0.01251  -0.0439   0.6580   0.9999
   3.500   0.6045   0.02197   0.01250  -0.0434   0.6531   0.9999
   3.600   0.6144   0.02215   0.01270  -0.0431   0.6460   0.9999
   3.700   0.6244   0.02229   0.01284  -0.0428   0.6397   0.9999
   3.800   0.6347   0.02234   0.01287  -0.0424   0.6343   0.9999
   3.900   0.6445   0.02253   0.01308  -0.0422   0.6273   0.9999
   4.000   0.6550   0.02256   0.01307  -0.0417   0.6225   0.9999
   4.100   0.6649   0.02275   0.01330  -0.0415   0.6154   0.9999
   4.200   0.6750   0.02290   0.01346  -0.0412   0.6090   0.9999
   4.300   0.6854   0.02296   0.01349  -0.0408   0.6037   0.9999
   4.400   0.6953   0.02317   0.01373  -0.0406   0.5967   0.9999
   4.500   0.7059   0.02321   0.01374  -0.0401   0.5917   0.9999
   4.600   0.7158   0.02341   0.01397  -0.0399   0.5847   0.9999
   4.700   0.7259   0.02358   0.01416  -0.0397   0.5784   0.9999
   4.800   0.7365   0.02364   0.01419  -0.0393   0.5730   0.9999
   4.900   0.7462   0.02387   0.01446  -0.0391   0.5659   0.9999
   5.000   0.7569   0.02394   0.01450  -0.0387   0.5607   0.9999
   5.100   0.7668   0.02413   0.01473  -0.0385   0.5539   0.9999
   5.200   0.7768   0.02432   0.01494  -0.0382   0.5475   0.9999
   5.300   0.7876   0.02437   0.01498  -0.0378   0.5422   0.9999
   5.400   0.7973   0.02463   0.01529  -0.0377   0.5351   0.9999
   5.500   0.8078   0.02474   0.01539  -0.0373   0.5295   0.9999
   5.600   0.8179   0.02491   0.01558  -0.0371   0.5230   0.9999
   5.700   0.8277   0.02514   0.01585  -0.0369   0.5164   0.9999
   5.800   0.8387   0.02518   0.01584  -0.0365   0.5113   0.9999
   5.900   0.8482   0.02547   0.01620  -0.0363   0.5040   0.9999
   6.000   0.8584   0.02564   0.01639  -0.0360   0.4980   0.9999
   6.100   0.8688   0.02577   0.01652  -0.0357   0.4920   0.9999
   6.200   0.8784   0.02604   0.01684  -0.0355   0.4851   0.9999
   6.300   0.8894   0.02610   0.01685  -0.0352   0.4799   0.9999
   6.400   0.8988   0.02638   0.01721  -0.0350   0.4728   0.9999
   6.500   0.9086   0.02661   0.01747  -0.0347   0.4663   0.9999
   6.600   0.9195   0.02668   0.01751  -0.0344   0.4608   0.9999
   6.700   0.9286   0.02700   0.01791  -0.0342   0.4535   0.9999
   6.800   0.9388   0.02718   0.01811  -0.0339   0.4474   0.9999
   6.900   0.9492   0.02733   0.01825  -0.0336   0.4412   0.9999
   7.000   0.9583   0.02764   0.01863  -0.0333   0.4342   0.9999
   7.100   0.9690   0.02776   0.01872  -0.0330   0.4283   0.9999
   7.200   0.9786   0.02798   0.01899  -0.0327   0.4215   0.9999
   7.300   0.9878   0.02828   0.01935  -0.0324   0.4145   0.9999
   7.400   0.9988   0.02836   0.01937  -0.0321   0.4088   0.9999
   7.500   1.0077   0.02865   0.01974  -0.0318   0.4015   0.9999
   7.600   1.0168   0.02894   0.02011  -0.0315   0.3946   0.9999
   7.700   1.0279   0.02902   0.02012  -0.0312   0.3886   0.9999
   7.800   1.0366   0.02933   0.02051  -0.0309   0.3813   0.9999
   7.900   1.0455   0.02963   0.02088  -0.0306   0.3742   0.9999
   8.000   1.0560   0.02975   0.02095  -0.0303   0.3679   0.9999
   8.100   1.0652   0.03000   0.02125  -0.0299   0.3606   0.9999
   8.200   1.0736   0.03034   0.02166  -0.0295   0.3533   0.9999
   8.400   1.0935   0.03066   0.02196  -0.0289   0.3396   0.9999
   8.500   1.1012   0.03103   0.02243  -0.0284   0.3318   0.9999
   8.600   1.1098   0.03132   0.02275  -0.0280   0.3244   0.9999
   8.700   1.1198   0.03147   0.02286  -0.0277   0.3174   0.9999
   8.800   1.1287   0.03169   0.02310  -0.0273   0.3099   0.9999
   8.900   1.1361   0.03206   0.02355  -0.0268   0.3019   0.9999
   9.000   1.1443   0.03236   0.02389  -0.0264   0.2943   0.9999
   9.100   1.1533   0.03257   0.02407  -0.0260   0.2868   0.9999
   9.200   1.1629   0.03272   0.02417  -0.0256   0.2791   0.9999
   9.300   1.1693   0.03313   0.02469  -0.0250   0.2709   0.9999
   9.400   1.1762   0.03351   0.02512  -0.0244   0.2628   0.9999
   9.500   1.1836   0.03384   0.02547  -0.0239   0.2548   0.9999
   9.600   1.1915   0.03412   0.02574  -0.0234   0.2468   0.9999
   9.700   1.1997   0.03436   0.02590  -0.0230   0.2387   0.9999
   9.800   1.2061   0.03472   0.02629  -0.0223   0.2303   0.9999
   9.900   1.2112   0.03519   0.02683  -0.0216   0.2220   0.9999
  10.000   1.2165   0.03563   0.02731  -0.0209   0.2136   0.9999
  10.100   1.2219   0.03606   0.02775  -0.0202   0.2053   0.9999
  10.200   1.2274   0.03647   0.02815  -0.0195   0.1972   0.9999
  10.300   1.2329   0.03687   0.02851  -0.0188   0.1890   0.9999
  10.400   1.2388   0.03726   0.02880  -0.0182   0.1809   0.9999
  10.500   1.2410   0.03789   0.02954  -0.0172   0.1731   0.9999
  10.600   1.2435   0.03854   0.03026  -0.0163   0.1656   0.9999
  10.700   1.2468   0.03917   0.03088  -0.0154   0.1583   0.9999
  10.800   1.2510   0.03973   0.03135  -0.0147   0.1511   0.9999
  10.900   1.2537   0.04038   0.03201  -0.0138   0.1443   0.9999
  11.000   1.2542   0.04126   0.03299  -0.0127   0.1381   0.9999
  11.100   1.2576   0.04197   0.03363  -0.0119   0.1319   0.9999
  11.200   1.2599   0.04273   0.03438  -0.0110   0.1261   0.9999
  11.300   1.2602   0.04372   0.03546  -0.0100   0.1210   0.9999
  11.400   1.2663   0.04440   0.03595  -0.0095   0.1152   0.9999
  11.500   1.2632   0.04554   0.03733  -0.0082   0.1115   0.9999
  11.600   1.2703   0.04630   0.03788  -0.0078   0.1061   0.9999
  11.700   1.2661   0.04747   0.03930  -0.0064   0.1032   0.9999
  11.800   1.2696   0.04826   0.04003  -0.0058   0.0990   0.9999
  11.900   1.2700   0.04943   0.04127  -0.0049   0.0959   0.9999
  12.000   1.2671   0.05055   0.04254  -0.0036   0.0935   0.9999
  12.100   1.2780   0.05139   0.04313  -0.0038   0.0887   0.9999
  12.200   1.2708   0.05256   0.04452  -0.0021   0.0876   0.9999
  12.300   1.2653   0.05377   0.04590  -0.0008   0.0860   0.9999
  12.400   1.2631   0.05489   0.04710   0.0001   0.0840   0.9999
  12.500   1.2753   0.05585   0.04785  -0.0000   0.0801   0.9999
  12.600   1.2676   0.05720   0.04939   0.0012   0.0793   0.9999
  12.700   1.2606   0.05863   0.05099   0.0022   0.0785   0.9999
  12.800   1.2544   0.06009   0.05261   0.0029   0.0775   0.9999
  12.900   1.2498   0.06152   0.05414   0.0035   0.0763   0.9999
  13.000   1.2513   0.06257   0.05519   0.0039   0.0742   0.9999
  13.100   1.2601   0.06368   0.05617   0.0041   0.0716   0.9999
  13.200   1.2517   0.06537   0.05802   0.0045   0.0713   0.9999
  13.300   1.2434   0.06715   0.05996   0.0048   0.0710   0.9999
  13.400   1.2350   0.06902   0.06197   0.0049   0.0707   0.9999
  13.500   1.2264   0.07098   0.06407   0.0049   0.0704   0.9999
  13.600   1.2177   0.07304   0.06626   0.0047   0.0702   0.9999
  13.700   1.2087   0.07520   0.06854   0.0043   0.0700   0.9999
  13.800   1.1995   0.07745   0.07091   0.0038   0.0699   0.9999
  13.900   1.1900   0.07983   0.07340   0.0032   0.0699   0.9999
  14.000   1.1801   0.08233   0.07600   0.0023   0.0700   0.9999
  14.100   1.1700   0.08494   0.07872   0.0013   0.0701   0.9999
  14.200   1.1597   0.08768   0.08155   0.0002   0.0702   0.9999
  14.300   1.1491   0.09053   0.08449  -0.0011   0.0705   0.9999
  14.400   1.1386   0.09348   0.08753  -0.0025   0.0707   0.9999
  14.500   1.1282   0.09653   0.09065  -0.0040   0.0710   0.9999
  14.600   1.1179   0.09966   0.09385  -0.0056   0.0712   0.9999
  14.700   1.1077   0.10288   0.09713  -0.0074   0.0715   0.9999
  14.800   1.0977   0.10617   0.10048  -0.0091   0.0717   0.9999
  14.900   1.0881   0.10951   0.10386  -0.0110   0.0720   0.9999
