  
       XFOIL         Version 6.99
  
 Calculated polar for: s1075                                           
  
 1 1 Reynolds number fixed          Mach number fixed         
  
 xtrf =   1.000 (top)        1.000 (bottom)  
 Mach =   0.000     Re =     0.080 e 6     Ncrit =   9.000
  
   alpha    CL        CD       CDp       CM     Top_Xtr  Bot_Xtr
  ------ -------- --------- --------- -------- -------- --------
   0.000   0.2641   0.01695   0.00884  -0.0558   0.8545   0.9999
   0.100   0.2739   0.01697   0.00880  -0.0553   0.8488   0.9999
   0.200   0.2825   0.01705   0.00885  -0.0547   0.8411   0.9999
   0.300   0.2914   0.01713   0.00888  -0.0542   0.8341   0.9999
   0.400   0.3007   0.01715   0.00885  -0.0535   0.8286   0.9999
   0.500   0.3094   0.01725   0.00891  -0.0530   0.8210   0.9999
   0.600   0.3184   0.01733   0.00895  -0.0524   0.8144   0.9999
   0.700   0.3275   0.01737   0.00894  -0.0517   0.8086   0.9999
   0.800   0.3364   0.01747   0.00901  -0.0512   0.8014   0.9999
   0.900   0.3456   0.01753   0.00903  -0.0506   0.7954   0.9999
   1.000   0.3547   0.01761   0.00906  -0.0500   0.7890   0.9999
   1.100   0.3639   0.01770   0.00913  -0.0496   0.7822   0.9999
   1.200   0.3732   0.01773   0.00910  -0.0489   0.7771   0.9999
   1.300   0.3825   0.01785   0.00920  -0.0485   0.7697   0.9999
   1.400   0.3919   0.01793   0.00925  -0.0480   0.7636   0.9999
   1.500   0.4014   0.01799   0.00927  -0.0474   0.7577   0.9999
   1.600   0.4109   0.01810   0.00936  -0.0471   0.7509   0.9999
   1.700   0.4205   0.01813   0.00933  -0.0464   0.7460   0.9999
   1.800   0.4301   0.01826   0.00945  -0.0461   0.7387   0.9999
   1.900   0.4398   0.01834   0.00951  -0.0457   0.7326   0.9999
   2.000   0.4496   0.01841   0.00954  -0.0452   0.7269   0.9999
   2.100   0.4594   0.01852   0.00964  -0.0449   0.7201   0.9999
   2.200   0.4692   0.01855   0.00962  -0.0443   0.7153   0.9999
   2.300   0.4791   0.01869   0.00975  -0.0441   0.7080   0.9999
   2.400   0.4890   0.01877   0.00982  -0.0437   0.7021   0.9999
   2.500   0.4990   0.01884   0.00986  -0.0433   0.6962   0.9999
   2.600   0.5090   0.01896   0.00997  -0.0430   0.6896   0.9999
   2.700   0.5190   0.01900   0.00996  -0.0425   0.6847   0.9999
   2.800   0.5291   0.01914   0.01011  -0.0423   0.6776   0.9999
   2.900   0.5392   0.01922   0.01016  -0.0419   0.6719   0.9999
   3.000   0.5494   0.01930   0.01023  -0.0416   0.6658   0.9999
   3.100   0.5595   0.01943   0.01035  -0.0414   0.6593   0.9999
   3.200   0.5698   0.01947   0.01035  -0.0409   0.6543   0.9999
   3.300   0.5799   0.01962   0.01051  -0.0408   0.6472   0.9999
   3.400   0.5902   0.01969   0.01055  -0.0404   0.6419   0.9999
   3.500   0.6005   0.01980   0.01067  -0.0401   0.6354   0.9999
   3.600   0.6107   0.01992   0.01079  -0.0399   0.6291   0.9999
   3.700   0.6211   0.01998   0.01081  -0.0395   0.6239   0.9999
   3.800   0.6313   0.02013   0.01098  -0.0394   0.6169   0.9999
   3.900   0.6418   0.02019   0.01101  -0.0390   0.6118   0.9999
   4.000   0.6521   0.02033   0.01116  -0.0388   0.6050   0.9999
   4.100   0.6624   0.02046   0.01130  -0.0386   0.5988   0.9999
   4.200   0.6729   0.02053   0.01133  -0.0383   0.5934   0.9999
   4.300   0.6831   0.02070   0.01153  -0.0381   0.5865   0.9999
   4.400   0.6937   0.02076   0.01155  -0.0378   0.5814   0.9999
   4.500   0.7039   0.02092   0.01174  -0.0376   0.5746   0.9999
   4.600   0.7143   0.02106   0.01188  -0.0374   0.5684   0.9999
   4.700   0.7248   0.02114   0.01194  -0.0371   0.5629   0.9999
   4.800   0.7350   0.02132   0.01216  -0.0370   0.5560   0.9999
   4.900   0.7457   0.02140   0.01219  -0.0367   0.5509   0.9999
   5.000   0.7559   0.02157   0.01240  -0.0365   0.5440   0.9999
   5.100   0.7662   0.02173   0.01256  -0.0363   0.5377   0.9999
   5.200   0.7769   0.02182   0.01263  -0.0360   0.5323   0.9999
   5.300   0.7869   0.02202   0.01288  -0.0359   0.5253   0.9999
   5.400   0.7976   0.02211   0.01294  -0.0356   0.5200   0.9999
   5.500   0.8078   0.02229   0.01316  -0.0354   0.5133   0.9999
   5.600   0.8180   0.02247   0.01336  -0.0353   0.5069   0.9999
   5.700   0.8287   0.02256   0.01341  -0.0350   0.5015   0.9999
   5.800   0.8386   0.02279   0.01369  -0.0348   0.4945   0.9999
   5.900   0.8492   0.02291   0.01380  -0.0346   0.4889   0.9999
   6.000   0.8594   0.02308   0.01400  -0.0344   0.4824   0.9999
   6.100   0.8695   0.02329   0.01424  -0.0342   0.4759   0.9999
   6.200   0.8803   0.02338   0.01429  -0.0340   0.4706   0.9999
   6.300   0.8900   0.02363   0.01460  -0.0338   0.4634   0.9999
   6.400   0.9003   0.02380   0.01478  -0.0336   0.4574   0.9999
   6.500   0.9107   0.02394   0.01492  -0.0334   0.4514   0.9999
   6.600   0.9205   0.02418   0.01522  -0.0332   0.4445   0.9999
   6.700   0.9312   0.02430   0.01531  -0.0329   0.4390   0.9999
   6.800   0.9409   0.02453   0.01559  -0.0327   0.4320   0.9999
   6.900   0.9507   0.02475   0.01585  -0.0325   0.4254   0.9999
   7.000   0.9616   0.02485   0.01589  -0.0323   0.4199   0.9999
   7.100   0.9708   0.02512   0.01625  -0.0320   0.4126   0.9999
   7.200   0.9807   0.02533   0.01648  -0.0318   0.4062   0.9999
   7.300   0.9912   0.02546   0.01658  -0.0316   0.4002   0.9999
   7.400   1.0004   0.02574   0.01694  -0.0313   0.3929   0.9999
   7.500   1.0104   0.02594   0.01715  -0.0311   0.3866   0.9999
   7.600   1.0206   0.02610   0.01730  -0.0308   0.3802   0.9999
   7.700   1.0296   0.02638   0.01766  -0.0305   0.3730   0.9999
   7.800   1.0395   0.02658   0.01786  -0.0303   0.3666   0.9999
   7.900   1.0495   0.02674   0.01801  -0.0300   0.3600   0.9999
   8.000   1.0583   0.02704   0.01838  -0.0297   0.3527   0.9999
   8.100   1.0678   0.02725   0.01861  -0.0294   0.3459   0.9999
   8.200   1.0780   0.02740   0.01871  -0.0292   0.3394   0.9999
   8.300   1.0863   0.02771   0.01913  -0.0288   0.3318   0.9999
   8.400   1.0953   0.02796   0.01941  -0.0285   0.3247   0.9999
   8.500   1.1053   0.02812   0.01951  -0.0282   0.3181   0.9999
   8.600   1.1138   0.02839   0.01985  -0.0278   0.3105   0.9999
   8.700   1.1219   0.02869   0.02021  -0.0274   0.3029   0.9999
   8.800   1.1307   0.02893   0.02046  -0.0271   0.2957   0.9999
   8.900   1.1406   0.02909   0.02054  -0.0268   0.2888   0.9999
   9.000   1.1480   0.02941   0.02096  -0.0263   0.2807   0.9999
   9.100   1.1555   0.02974   0.02134  -0.0259   0.2729   0.9999
   9.200   1.1636   0.03003   0.02166  -0.0254   0.2653   0.9999
   9.300   1.1721   0.03027   0.02186  -0.0250   0.2578   0.9999
   9.400   1.1799   0.03055   0.02214  -0.0246   0.2500   0.9999
   9.500   1.1864   0.03092   0.02259  -0.0240   0.2418   0.9999
   9.600   1.1930   0.03128   0.02299  -0.0234   0.2336   0.9999
   9.700   1.1997   0.03163   0.02335  -0.0229   0.2256   0.9999
   9.800   1.2065   0.03195   0.02365  -0.0223   0.2176   0.9999
   9.900   1.2133   0.03226   0.02389  -0.0218   0.2096   0.9999
  10.000   1.2183   0.03267   0.02436  -0.0211   0.2013   0.9999
  10.100   1.2229   0.03313   0.02487  -0.0203   0.1930   0.9999
  10.200   1.2273   0.03361   0.02539  -0.0196   0.1848   0.9999
  10.300   1.2317   0.03409   0.02588  -0.0188   0.1770   0.9999
  10.400   1.2360   0.03457   0.02632  -0.0180   0.1692   0.9999
  10.500   1.2408   0.03505   0.02670  -0.0174   0.1618   0.9999
  10.600   1.2427   0.03567   0.02743  -0.0164   0.1543   0.9999
  10.700   1.2449   0.03634   0.02814  -0.0154   0.1471   0.9999
  10.800   1.2477   0.03699   0.02877  -0.0145   0.1403   0.9999
  10.900   1.2517   0.03759   0.02922  -0.0138   0.1338   0.9999
  11.000   1.2514   0.03841   0.03021  -0.0126   0.1276   0.9999
  11.100   1.2535   0.03920   0.03097  -0.0117   0.1218   0.9999
  11.200   1.2562   0.03989   0.03157  -0.0109   0.1162   0.9999
  11.300   1.2557   0.04083   0.03265  -0.0098   0.1112   0.9999
  11.400   1.2602   0.04160   0.03324  -0.0092   0.1061   0.9999
  11.500   1.2580   0.04257   0.03441  -0.0079   0.1021   0.9999
  11.600   1.2631   0.04334   0.03498  -0.0074   0.0974   0.9999
  11.700   1.2593   0.04434   0.03620  -0.0059   0.0944   0.9999
  11.800   1.2603   0.04515   0.03699  -0.0049   0.0909   0.9999
  11.900   1.2626   0.04617   0.03799  -0.0042   0.0874   0.9999
  12.000   1.2597   0.04718   0.03915  -0.0029   0.0849   0.9999
  12.100   1.2625   0.04798   0.03987  -0.0023   0.0817   0.9999
  12.200   1.2640   0.04914   0.04105  -0.0016   0.0791   0.9999
  12.300   1.2608   0.05031   0.04238  -0.0006   0.0772   0.9999
  12.400   1.2605   0.05132   0.04344   0.0001   0.0749   0.9999
  12.500   1.2688   0.05226   0.04420   0.0003   0.0716   0.9999
  12.600   1.2630   0.05356   0.04570   0.0013   0.0706   0.9999
  12.700   1.2590   0.05488   0.04718   0.0020   0.0692   0.9999
  12.800   1.2573   0.05612   0.04850   0.0025   0.0676   0.9999
  12.900   1.2600   0.05709   0.04944   0.0029   0.0656   0.9999
  13.000   1.2657   0.05830   0.05057   0.0032   0.0635   0.9999
  13.100   1.2591   0.05982   0.05228   0.0037   0.0629   0.9999
  13.200   1.2530   0.06141   0.05403   0.0041   0.0622   0.9999
  13.300   1.2473   0.06305   0.05581   0.0044   0.0615   0.9999
  13.400   1.2424   0.06468   0.05757   0.0045   0.0607   0.9999
  13.500   1.2385   0.06627   0.05925   0.0046   0.0599   0.9999
  13.600   1.2375   0.06765   0.06068   0.0047   0.0588   0.9999
  13.700   1.2537   0.06822   0.06098   0.0053   0.0561   0.9999
  13.800   1.2457   0.07007   0.06298   0.0053   0.0559   0.9999
  13.900   1.2376   0.07201   0.06508   0.0051   0.0557   0.9999
  14.000   1.2294   0.07405   0.06725   0.0048   0.0556   0.9999
  14.100   1.2212   0.07617   0.06950   0.0043   0.0554   0.9999
  14.200   1.2128   0.07837   0.07183   0.0038   0.0553   0.9999
  14.300   1.2041   0.08067   0.07425   0.0031   0.0552   0.9999
  14.400   1.1954   0.08306   0.07675   0.0023   0.0552   0.9999
  14.500   1.1865   0.08553   0.07932   0.0013   0.0552   0.9999
  14.600   1.1774   0.08809   0.08199   0.0003   0.0552   0.9999
  14.700   1.1682   0.09075   0.08475  -0.0009   0.0553   0.9999
  14.800   1.1589   0.09350   0.08759  -0.0022   0.0553   0.9999
  14.900   1.1496   0.09631   0.09049  -0.0036   0.0554   0.9999
  15.000   1.1402   0.09922   0.09348  -0.0051   0.0555   0.9999
  15.100   1.1309   0.10221   0.09654  -0.0067   0.0557   0.9999
  15.200   1.1218   0.10525   0.09965  -0.0084   0.0558   0.9999
  15.300   1.1126   0.10839   0.10285  -0.0101   0.0559   0.9999
  15.400   1.1038   0.11154   0.10606  -0.0119   0.0561   0.9999
