  
       XFOIL         Version 6.99
  
 Calculated polar for: s1075                                           
  
 1 1 Reynolds number fixed          Mach number fixed         
  
 xtrf =   1.000 (top)        1.000 (bottom)  
 Mach =   0.000     Re =     0.090 e 6     Ncrit =   9.000
  
   alpha    CL        CD       CDp       CM     Top_Xtr  Bot_Xtr
  ------ -------- --------- --------- -------- -------- --------
   0.000   0.2561   0.01565   0.00791  -0.0517   0.8358   0.9999
   0.100   0.2647   0.01569   0.00790  -0.0510   0.8295   0.9999
   0.200   0.2734   0.01576   0.00792  -0.0505   0.8223   0.9999
   0.300   0.2822   0.01580   0.00790  -0.0498   0.8165   0.9999
   0.400   0.2911   0.01586   0.00792  -0.0492   0.8098   0.9999
   0.500   0.3000   0.01593   0.00794  -0.0487   0.8030   0.9999
   0.600   0.3089   0.01596   0.00791  -0.0480   0.7978   0.9999
   0.700   0.3182   0.01604   0.00797  -0.0476   0.7905   0.9999
   0.800   0.3273   0.01610   0.00798  -0.0471   0.7844   0.9999
   0.900   0.3366   0.01616   0.00799  -0.0465   0.7784   0.9999
   1.000   0.3460   0.01624   0.00804  -0.0461   0.7716   0.9999
   1.100   0.3552   0.01627   0.00801  -0.0454   0.7667   0.9999
   1.200   0.3649   0.01637   0.00808  -0.0451   0.7594   0.9999
   1.300   0.3745   0.01643   0.00811  -0.0447   0.7535   0.9999
   1.400   0.3840   0.01649   0.00813  -0.0442   0.7476   0.9999
   1.500   0.3938   0.01658   0.00819  -0.0439   0.7410   0.9999
   1.600   0.4034   0.01662   0.00817  -0.0433   0.7360   0.9999
   1.700   0.4134   0.01672   0.00826  -0.0431   0.7289   0.9999
   1.800   0.4233   0.01678   0.00828  -0.0427   0.7233   0.9999
   1.900   0.4332   0.01685   0.00833  -0.0423   0.7171   0.9999
   2.000   0.4432   0.01694   0.00839  -0.0420   0.7108   0.9999
   2.100   0.4532   0.01699   0.00839  -0.0416   0.7056   0.9999
   2.200   0.4633   0.01709   0.00849  -0.0414   0.6987   0.9999
   2.300   0.4734   0.01714   0.00849  -0.0409   0.6936   0.9999
   2.400   0.4836   0.01724   0.00858  -0.0407   0.6869   0.9999
   2.500   0.4938   0.01732   0.00864  -0.0404   0.6809   0.9999
   2.600   0.5040   0.01738   0.00866  -0.0401   0.6754   0.9999
   2.700   0.5143   0.01749   0.00876  -0.0399   0.6687   0.9999
   2.800   0.5245   0.01753   0.00875  -0.0394   0.6640   0.9999
   3.000   0.5452   0.01773   0.00894  -0.0390   0.6512   0.9999
   3.100   0.5556   0.01781   0.00899  -0.0388   0.6452   0.9999
   3.200   0.5659   0.01791   0.00909  -0.0386   0.6388   0.9999
   3.300   0.5764   0.01797   0.00910  -0.0382   0.6338   0.9999
   3.400   0.5868   0.01809   0.00924  -0.0381   0.6268   0.9999
   3.500   0.5972   0.01816   0.00928  -0.0378   0.6215   0.9999
   3.600   0.6077   0.01827   0.00938  -0.0376   0.6151   0.9999
   3.700   0.6181   0.01838   0.00949  -0.0375   0.6089   0.9999
   3.800   0.6287   0.01845   0.00952  -0.0372   0.6035   0.9999
   3.900   0.6391   0.01858   0.00967  -0.0371   0.5967   0.9999
   4.000   0.6497   0.01865   0.00969  -0.0368   0.5917   0.9999
   4.100   0.6601   0.01878   0.00985  -0.0366   0.5849   0.9999
   4.200   0.6706   0.01889   0.00996  -0.0365   0.5788   0.9999
   4.300   0.6812   0.01898   0.01002  -0.0362   0.5732   0.9999
   4.400   0.6916   0.01912   0.01018  -0.0361   0.5666   0.9999
   4.500   0.7024   0.01919   0.01018  -0.0358   0.5617   0.9999
   4.600   0.7127   0.01934   0.01038  -0.0357   0.5546   0.9999
   4.700   0.7232   0.01947   0.01051  -0.0355   0.5486   0.9999
   4.800   0.7338   0.01957   0.01059  -0.0353   0.5429   0.9999
   4.900   0.7442   0.01972   0.01077  -0.0352   0.5362   0.9999
   5.000   0.7550   0.01980   0.01079  -0.0350   0.5313   0.9999
   5.100   0.7653   0.01998   0.01102  -0.0349   0.5242   0.9999
   5.200   0.7758   0.02011   0.01115  -0.0347   0.5182   0.9999
   5.300   0.7864   0.02023   0.01126  -0.0345   0.5124   0.9999
   5.400   0.7967   0.02040   0.01146  -0.0344   0.5057   0.9999
   5.500   0.8075   0.02049   0.01149  -0.0341   0.5008   0.9999
   5.600   0.8176   0.02067   0.01174  -0.0340   0.4936   0.9999
   5.700   0.8281   0.02083   0.01190  -0.0339   0.4876   0.9999
   5.800   0.8387   0.02095   0.01201  -0.0337   0.4818   0.9999
   5.900   0.8488   0.02114   0.01224  -0.0336   0.4751   0.9999
   6.000   0.8596   0.02125   0.01230  -0.0334   0.4699   0.9999
   6.100   0.8697   0.02144   0.01256  -0.0332   0.4629   0.9999
   6.200   0.8800   0.02162   0.01274  -0.0331   0.4567   0.9999
   6.300   0.8906   0.02175   0.01285  -0.0329   0.4510   0.9999
   6.400   0.9005   0.02196   0.01312  -0.0327   0.4441   0.9999
   6.500   0.9111   0.02210   0.01323  -0.0325   0.4385   0.9999
   6.600   0.9212   0.02228   0.01344  -0.0324   0.4319   0.9999
   6.700   0.9312   0.02248   0.01369  -0.0322   0.4254   0.9999
   6.800   0.9419   0.02260   0.01376  -0.0320   0.4199   0.9999
   6.900   0.9515   0.02283   0.01406  -0.0318   0.4127   0.9999
   7.000   0.9617   0.02302   0.01426  -0.0316   0.4065   0.9999
   7.100   0.9720   0.02317   0.01439  -0.0314   0.4004   0.9999
   7.200   0.9816   0.02340   0.01469  -0.0312   0.3934   0.9999
   7.300   0.9918   0.02357   0.01485  -0.0310   0.3875   0.9999
   7.400   1.0017   0.02376   0.01505  -0.0308   0.3808   0.9999
   7.500   1.0112   0.02399   0.01535  -0.0306   0.3739   0.9999
   7.600   1.0215   0.02416   0.01548  -0.0304   0.3680   0.9999
   7.700   1.0310   0.02437   0.01574  -0.0302   0.3610   0.9999
   7.800   1.0404   0.02460   0.01602  -0.0299   0.3541   0.9999
   7.900   1.0506   0.02477   0.01615  -0.0297   0.3480   0.9999
   8.000   1.0598   0.02500   0.01643  -0.0294   0.3409   0.9999
   8.100   1.0689   0.02525   0.01673  -0.0292   0.3338   0.9999
   8.200   1.0787   0.02544   0.01689  -0.0289   0.3274   0.9999
   8.300   1.0879   0.02565   0.01714  -0.0286   0.3203   0.9999
   8.400   1.0966   0.02592   0.01747  -0.0283   0.3130   0.9999
   8.500   1.1057   0.02614   0.01770  -0.0280   0.3061   0.9999
   8.600   1.1152   0.02633   0.01785  -0.0278   0.2993   0.9999
   8.700   1.1233   0.02661   0.01822  -0.0274   0.2916   0.9999
   8.800   1.1318   0.02688   0.01853  -0.0270   0.2843   0.9999
   8.900   1.1406   0.02711   0.01873  -0.0267   0.2773   0.9999
   9.000   1.1491   0.02735   0.01898  -0.0263   0.2699   0.9999
   9.100   1.1567   0.02766   0.01937  -0.0259   0.2620   0.9999
   9.200   1.1644   0.02796   0.01970  -0.0255   0.2544   0.9999
   9.300   1.1725   0.02824   0.01997  -0.0250   0.2471   0.9999
   9.400   1.1805   0.02850   0.02018  -0.0246   0.2396   0.9999
   9.500   1.1870   0.02884   0.02061  -0.0241   0.2314   0.9999
   9.600   1.1935   0.02919   0.02101  -0.0235   0.2233   0.9999
   9.700   1.2000   0.02954   0.02137  -0.0230   0.2153   0.9999
   9.800   1.2063   0.02988   0.02171  -0.0224   0.2074   0.9999
   9.900   1.2126   0.03022   0.02200  -0.0218   0.1996   0.9999
  10.000   1.2178   0.03061   0.02241  -0.0212   0.1914   0.9999
  10.100   1.2223   0.03105   0.02292  -0.0204   0.1832   0.9999
  10.200   1.2267   0.03152   0.02344  -0.0197   0.1751   0.9999
  10.300   1.2309   0.03201   0.02393  -0.0189   0.1674   0.9999
  10.400   1.2349   0.03252   0.02440  -0.0181   0.1599   0.9999
  10.500   1.2388   0.03303   0.02485  -0.0174   0.1527   0.9999
  10.600   1.2410   0.03364   0.02554  -0.0164   0.1452   0.9999
  10.700   1.2433   0.03429   0.02623  -0.0155   0.1382   0.9999
  10.800   1.2458   0.03495   0.02683  -0.0146   0.1318   0.9999
  10.900   1.2479   0.03560   0.02745  -0.0137   0.1255   0.9999
  11.000   1.2487   0.03638   0.02831  -0.0126   0.1194   0.9999
  11.100   1.2506   0.03712   0.02898  -0.0117   0.1140   0.9999
  11.200   1.2511   0.03789   0.02979  -0.0107   0.1087   0.9999
  11.300   1.2519   0.03874   0.03064  -0.0096   0.1038   0.9999
  11.400   1.2523   0.03949   0.03137  -0.0086   0.0994   0.9999
  11.500   1.2519   0.04035   0.03226  -0.0074   0.0954   0.9999
  11.600   1.2510   0.04117   0.03311  -0.0063   0.0917   0.9999
  11.700   1.2533   0.04206   0.03390  -0.0055   0.0879   0.9999
  11.800   1.2511   0.04302   0.03501  -0.0043   0.0848   0.9999
  11.900   1.2531   0.04382   0.03572  -0.0036   0.0815   0.9999
  12.000   1.2531   0.04488   0.03685  -0.0028   0.0786   0.9999
  12.100   1.2518   0.04591   0.03798  -0.0019   0.0760   0.9999
  12.200   1.2554   0.04673   0.03870  -0.0015   0.0730   0.9999
  12.300   1.2558   0.04788   0.03990  -0.0008   0.0706   0.9999
  12.400   1.2533   0.04903   0.04119  -0.0000   0.0687   0.9999
  12.500   1.2532   0.05003   0.04223   0.0005   0.0666   0.9999
  12.600   1.2614   0.05095   0.04295   0.0008   0.0637   0.9999
  12.700   1.2572   0.05226   0.04447   0.0015   0.0625   0.9999
  12.800   1.2545   0.05355   0.04589   0.0020   0.0610   0.9999
  12.900   1.2531   0.05474   0.04717   0.0024   0.0595   0.9999
  13.000   1.2547   0.05573   0.04814   0.0027   0.0578   0.9999
  13.100   1.2619   0.05684   0.04913   0.0031   0.0558   0.9999
  13.200   1.2568   0.05835   0.05083   0.0034   0.0551   0.9999
  13.300   1.2522   0.05991   0.05254   0.0037   0.0543   0.9999
  13.400   1.2485   0.06145   0.05422   0.0039   0.0534   0.9999
  13.500   1.2458   0.06293   0.05579   0.0040   0.0525   0.9999
  13.600   1.2444   0.06429   0.05722   0.0041   0.0515   0.9999
  13.700   1.2448   0.06552   0.05846   0.0042   0.0505   0.9999
  13.800   1.2571   0.06644   0.05920   0.0048   0.0486   0.9999
  13.900   1.2503   0.06826   0.06117   0.0048   0.0484   0.9999
  14.000   1.2432   0.07016   0.06322   0.0046   0.0482   0.9999
  14.100   1.2363   0.07213   0.06533   0.0043   0.0480   0.9999
  14.200   1.2291   0.07418   0.06752   0.0039   0.0478   0.9999
  14.300   1.2216   0.07631   0.06978   0.0034   0.0477   0.9999
  14.400   1.2140   0.07852   0.07211   0.0027   0.0476   0.9999
  14.500   1.2064   0.08080   0.07451   0.0020   0.0475   0.9999
  14.600   1.1984   0.08317   0.07699   0.0012   0.0474   0.9999
  14.700   1.1901   0.08563   0.07956   0.0002   0.0473   0.9999
  14.800   1.1815   0.08819   0.08222  -0.0009   0.0473   0.9999
  14.900   1.1729   0.09082   0.08495  -0.0021   0.0473   0.9999
  15.000   1.1639   0.09355   0.08778  -0.0034   0.0474   0.9999
  15.100   1.1549   0.09637   0.09070  -0.0048   0.0475   0.9999
  15.200   1.1458   0.09927   0.09369  -0.0063   0.0476   0.9999
  15.300   1.1365   0.10228   0.09678  -0.0080   0.0477   0.9999
  15.400   1.1273   0.10533   0.09991  -0.0097   0.0478   0.9999
  15.500   1.1181   0.10850   0.10315  -0.0115   0.0480   0.9999
  15.600   1.1089   0.11178   0.10650  -0.0135   0.0481   0.9999
  15.700   1.1003   0.11505   0.10983  -0.0154   0.0483   0.9999
  15.800   1.0916   0.11844   0.11327  -0.0175   0.0485   0.9999
  15.900   1.0830   0.12192   0.11681  -0.0196   0.0486   0.9999
