  
       XFOIL         Version 6.99
  
 Calculated polar for: NACA 4412                                       
  
 1 1 Reynolds number fixed          Mach number fixed         
  
 xtrf =   1.000 (top)        1.000 (bottom)  
 Mach =   0.000     Re =     0.010 e 6     Ncrit =   9.000
  
   alpha    CL        CD       CDp       CM     Top_Xtr  Bot_Xtr
  ------ -------- --------- --------- -------- -------- --------
 -10.000  -0.0993   0.10855   0.09047  -0.0372   1.0000   1.0000
  -9.900  -0.0961   0.10756   0.08949  -0.0375   1.0000   1.0000
  -9.800  -0.0929   0.10657   0.08851  -0.0379   1.0000   1.0000
  -9.700  -0.0897   0.10559   0.08753  -0.0382   1.0000   1.0000
  -9.600  -0.0865   0.10461   0.08656  -0.0385   1.0000   1.0000
  -9.500  -0.0834   0.10363   0.08560  -0.0388   1.0000   1.0000
  -9.400  -0.0803   0.10266   0.08464  -0.0391   1.0000   1.0000
  -9.300  -0.0772   0.10169   0.08368  -0.0394   1.0000   1.0000
  -9.200  -0.0742   0.10073   0.08273  -0.0396   1.0000   1.0000
  -9.100  -0.0712   0.09977   0.08179  -0.0399   1.0000   1.0000
  -9.000  -0.0682   0.09881   0.08085  -0.0402   1.0000   1.0000
  -8.900  -0.0652   0.09787   0.07991  -0.0404   1.0000   1.0000
  -8.800  -0.0623   0.09692   0.07898  -0.0407   1.0000   1.0000
  -8.700  -0.0594   0.09599   0.07806  -0.0409   1.0000   1.0000
  -8.600  -0.0565   0.09505   0.07714  -0.0412   1.0000   1.0000
  -8.500  -0.0537   0.09413   0.07622  -0.0414   1.0000   1.0000
  -8.400  -0.0509   0.09321   0.07532  -0.0416   1.0000   1.0000
  -8.300  -0.0482   0.09230   0.07442  -0.0419   1.0000   1.0000
  -8.200  -0.0454   0.09139   0.07353  -0.0421   1.0000   1.0000
  -8.100  -0.0428   0.09049   0.07265  -0.0423   1.0000   1.0000
  -8.000  -0.0401   0.08960   0.07177  -0.0425   1.0000   1.0000
  -7.900  -0.0375   0.08871   0.07091  -0.0427   1.0000   1.0000
  -7.800  -0.0349   0.08783   0.07005  -0.0428   1.0000   1.0000
  -7.700  -0.0324   0.08696   0.06919  -0.0430   1.0000   1.0000
  -7.600  -0.0299   0.08610   0.06835  -0.0432   1.0000   1.0000
  -7.500  -0.0275   0.08525   0.06751  -0.0433   1.0000   1.0000
  -7.400  -0.0251   0.08440   0.06669  -0.0435   1.0000   1.0000
  -7.300  -0.0279   0.08412   0.06646  -0.0424   1.0000   0.9966
  -7.200  -0.0502   0.08597   0.06847  -0.0365   1.0000   0.9775
  -7.100  -0.0678   0.08723   0.06985  -0.0321   1.0000   0.9600
  -7.000  -0.0795   0.08771   0.07045  -0.0291   1.0000   0.9449
  -6.900  -0.0929   0.08840   0.07126  -0.0259   1.0000   0.9296
  -6.800  -0.1036   0.08874   0.07169  -0.0234   1.0000   0.9159
  -6.700  -0.1121   0.08877   0.07182  -0.0214   1.0000   0.9034
  -6.600  -0.1204   0.08878   0.07192  -0.0195   1.0000   0.8916
  -6.500  -0.1287   0.08876   0.07199  -0.0177   1.0000   0.8803
  -6.400  -0.1373   0.08876   0.07208  -0.0159   1.0000   0.8696
  -6.300  -0.1411   0.08822   0.07162  -0.0151   1.0000   0.8610
  -6.200  -0.1464   0.08784   0.07132  -0.0139   1.0000   0.8524
  -6.100  -0.1539   0.08765   0.07122  -0.0124   1.0000   0.8436
  -6.000  -0.1620   0.08750   0.07116  -0.0108   1.0000   0.8352
  -5.900  -0.1641   0.08675   0.07048  -0.0103   1.0000   0.8290
  -5.800  -0.1726   0.08659   0.07041  -0.0087   1.0000   0.8214
  -5.700  -0.1751   0.08586   0.06974  -0.0081   1.0000   0.8159
  -5.600  -0.1831   0.08560   0.06957  -0.0066   1.0000   0.8093
  -5.500  -0.1853   0.08483   0.06887  -0.0061   1.0000   0.8049
  -5.400  -0.1952   0.08469   0.06882  -0.0042   1.0000   0.7986
  -5.300  -0.1961   0.08380   0.06799  -0.0039   1.0000   0.7957
  -5.200  -0.1999   0.08313   0.06740  -0.0031   1.0000   0.7922
  -5.100  -0.2101   0.08293   0.06730  -0.0011   1.0000   0.7868
  -5.000  -0.2116   0.08207   0.06650  -0.0007   1.0000   0.7850
  -4.900  -0.2143   0.08130   0.06579  -0.0000   1.0000   0.7829
  -4.800  -0.2187   0.08064   0.06520   0.0010   1.0000   0.7806
  -4.700  -0.2281   0.08028   0.06495   0.0027   1.0000   0.7767
  -4.600  -0.2337   0.07967   0.06441   0.0039   1.0000   0.7744
  -4.500  -0.2368   0.07888   0.06368   0.0047   1.0000   0.7733
  -4.400  -0.2406   0.07813   0.06300   0.0055   1.0000   0.7721
  -4.300  -0.2450   0.07741   0.06234   0.0065   1.0000   0.7710
  -4.200  -0.2499   0.07671   0.06172   0.0076   1.0000   0.7700
  -4.100  -0.2554   0.07603   0.06111   0.0088   1.0000   0.7692
  -4.000  -0.2612   0.07536   0.06051   0.0101   1.0000   0.7685
  -3.900  -0.2671   0.07468   0.05991   0.0114   1.0000   0.7680
  -3.800  -0.2728   0.07397   0.05927   0.0126   1.0000   0.7679
  -3.700  -0.2781   0.07324   0.05861   0.0138   1.0000   0.7682
  -3.600  -0.2826   0.07245   0.05788   0.0149   1.0000   0.7690
  -3.500  -0.2867   0.07165   0.05713   0.0158   1.0000   0.7703
  -3.400  -0.2911   0.07084   0.05638   0.0168   1.0000   0.7715
  -3.300  -0.2958   0.07004   0.05564   0.0178   1.0000   0.7728
  -3.200  -0.3009   0.06924   0.05490   0.0189   1.0000   0.7741
  -3.000  -0.2987   0.06719   0.05289   0.0193   1.0000   0.7846
  -2.900  -0.3032   0.06636   0.05212   0.0203   1.0000   0.7876
  -2.800  -0.2962   0.06516   0.05088   0.0197   1.0000   0.7978
  -2.700  -0.1550   0.05949   0.04430  -0.0048   1.0000   0.9078
  -2.400  -0.0411   0.05304   0.03716  -0.0332   1.0000   1.0000
  -2.300  -0.0470   0.05254   0.03674  -0.0324   1.0000   1.0000
  -2.200  -0.0533   0.05204   0.03629  -0.0316   1.0000   1.0000
  -2.100  -0.0600   0.05152   0.03586  -0.0307   1.0000   1.0000
  -2.000  -0.0672   0.05100   0.03541  -0.0298   1.0000   1.0000
  -1.900  -0.0749   0.05045   0.03494  -0.0289   1.0000   1.0000
  -1.800  -0.0831   0.04989   0.03446  -0.0279   1.0000   1.0000
  -1.700  -0.0917   0.04930   0.03397  -0.0268   1.0000   1.0000
  -1.600  -0.1007   0.04869   0.03344  -0.0258   1.0000   1.0000
  -1.500  -0.1100   0.04805   0.03289  -0.0248   1.0000   1.0000
  -1.400  -0.1192   0.04739   0.03229  -0.0239   1.0000   1.0000
  -1.300  -0.1265   0.04669   0.03159  -0.0237   1.0000   1.0000
  -1.200  -0.1282   0.04594   0.03070  -0.0252   1.0000   1.0000
  -1.100  -0.1173   0.04527   0.02954  -0.0300   1.0000   1.0000
  -1.000  -0.0981   0.04507   0.02853  -0.0352   1.0000   1.0000
  -0.900  -0.0826   0.04515   0.02793  -0.0380   1.0000   1.0000
  -0.800  -0.0702   0.04531   0.02755  -0.0396   1.0000   1.0000
  -0.700  -0.0595   0.04552   0.02730  -0.0406   1.0000   1.0000
  -0.600  -0.0498   0.04574   0.02712  -0.0413   1.0000   1.0000
  -0.500  -0.0407   0.04598   0.02700  -0.0417   1.0000   1.0000
  -0.400  -0.0320   0.04623   0.02693  -0.0421   1.0000   1.0000
  -0.300  -0.0236   0.04649   0.02688  -0.0424   1.0000   1.0000
  -0.200  -0.0154   0.04676   0.02688  -0.0426   1.0000   1.0000
  -0.100  -0.0074   0.04704   0.02690  -0.0427   1.0000   1.0000
   0.000   0.0004   0.04733   0.02695  -0.0429   1.0000   1.0000
   0.100   0.0081   0.04763   0.02702  -0.0430   1.0000   1.0000
   0.200   0.0156   0.04794   0.02711  -0.0431   1.0000   1.0000
   0.300   0.0231   0.04825   0.02721  -0.0432   1.0000   1.0000
   0.400   0.0305   0.04858   0.02734  -0.0432   1.0000   1.0000
   0.500   0.0378   0.04892   0.02749  -0.0433   1.0000   1.0000
   0.600   0.0451   0.04926   0.02765  -0.0433   1.0000   1.0000
   0.700   0.0523   0.04961   0.02783  -0.0434   1.0000   1.0000
   0.800   0.0594   0.04997   0.02803  -0.0434   1.0000   1.0000
   0.900   0.0665   0.05034   0.02824  -0.0435   1.0000   1.0000
   1.000   0.0735   0.05072   0.02846  -0.0435   1.0000   1.0000
   1.100   0.0805   0.05110   0.02870  -0.0436   1.0000   1.0000
   1.200   0.0874   0.05150   0.02896  -0.0436   1.0000   1.0000
   1.300   0.0943   0.05190   0.02923  -0.0436   1.0000   1.0000
   1.400   0.1012   0.05232   0.02951  -0.0437   1.0000   1.0000
   1.500   0.1080   0.05274   0.02981  -0.0437   1.0000   1.0000
   1.600   0.1148   0.05316   0.03012  -0.0438   1.0000   1.0000
   1.700   0.1215   0.05360   0.03044  -0.0438   1.0000   1.0000
   1.800   0.1282   0.05405   0.03078  -0.0439   1.0000   1.0000
   1.900   0.1349   0.05450   0.03113  -0.0439   1.0000   1.0000
   2.000   0.1415   0.05496   0.03149  -0.0440   1.0000   1.0000
   2.100   0.1481   0.05543   0.03186  -0.0440   1.0000   1.0000
   2.200   0.1547   0.05591   0.03225  -0.0441   1.0000   1.0000
   2.300   0.1612   0.05640   0.03265  -0.0442   1.0000   1.0000
   2.400   0.1677   0.05689   0.03305  -0.0442   1.0000   1.0000
   2.500   0.1742   0.05739   0.03348  -0.0443   1.0000   1.0000
   2.600   0.1806   0.05790   0.03391  -0.0444   1.0000   1.0000
   2.700   0.1870   0.05842   0.03436  -0.0445   1.0000   1.0000
   2.800   0.1934   0.05895   0.03482  -0.0445   1.0000   1.0000
   2.900   0.1997   0.05949   0.03529  -0.0446   1.0000   1.0000
   3.000   0.2060   0.06003   0.03576  -0.0447   1.0000   1.0000
   3.100   0.2123   0.06058   0.03626  -0.0448   1.0000   1.0000
   3.200   0.2185   0.06114   0.03676  -0.0449   1.0000   1.0000
   3.300   0.2247   0.06171   0.03727  -0.0450   1.0000   1.0000
   3.400   0.2309   0.06228   0.03780  -0.0451   1.0000   1.0000
   3.500   0.2370   0.06287   0.03834  -0.0452   1.0000   1.0000
   3.600   0.2431   0.06346   0.03889  -0.0453   1.0000   1.0000
   3.700   0.2492   0.06406   0.03945  -0.0454   1.0000   1.0000
   3.800   0.2552   0.06467   0.04002  -0.0455   1.0000   1.0000
   3.900   0.2612   0.06529   0.04060  -0.0456   1.0000   1.0000
   4.000   0.2672   0.06592   0.04120  -0.0458   1.0000   1.0000
   4.100   0.2731   0.06655   0.04180  -0.0459   1.0000   1.0000
   4.200   0.2790   0.06719   0.04242  -0.0460   1.0000   1.0000
   4.300   0.2849   0.06784   0.04304  -0.0462   1.0000   1.0000
   4.400   0.2907   0.06850   0.04368  -0.0463   1.0000   1.0000
   4.500   0.2965   0.06917   0.04433  -0.0464   1.0000   1.0000
   4.600   0.3023   0.06985   0.04499  -0.0466   1.0000   1.0000
   4.700   0.3080   0.07054   0.04566  -0.0467   1.0000   1.0000
   4.800   0.3137   0.07123   0.04635  -0.0469   1.0000   1.0000
   4.900   0.3193   0.07193   0.04704  -0.0470   1.0000   1.0000
   5.000   0.3249   0.07265   0.04775  -0.0472   1.0000   1.0000
   5.100   0.3305   0.07337   0.04846  -0.0474   1.0000   1.0000
   5.200   0.3361   0.07410   0.04920  -0.0475   1.0000   1.0000
   5.300   0.3416   0.07484   0.04994  -0.0477   1.0000   1.0000
   5.400   0.3471   0.07559   0.05069  -0.0479   1.0000   1.0000
   5.500   0.3525   0.07635   0.05145  -0.0481   1.0000   1.0000
   5.600   0.3579   0.07711   0.05223  -0.0482   1.0000   1.0000
   5.700   0.3633   0.07789   0.05301  -0.0484   1.0000   1.0000
   5.800   0.3686   0.07868   0.05381  -0.0486   1.0000   1.0000
   5.900   0.3739   0.07947   0.05462  -0.0488   1.0000   1.0000
   6.000   0.3792   0.08028   0.05544  -0.0490   1.0000   1.0000
   6.100   0.3844   0.08109   0.05627  -0.0492   1.0000   1.0000
   6.200   0.3896   0.08191   0.05712  -0.0495   1.0000   1.0000
   6.300   0.3947   0.08275   0.05797  -0.0497   1.0000   1.0000
   6.400   0.3998   0.08359   0.05884  -0.0499   1.0000   1.0000
   6.500   0.4049   0.08444   0.05971  -0.0501   1.0000   1.0000
   6.600   0.4099   0.08530   0.06060  -0.0504   1.0000   1.0000
   6.700   0.4149   0.08617   0.06151  -0.0506   1.0000   1.0000
   6.800   0.4199   0.08705   0.06242  -0.0508   1.0000   1.0000
   6.900   0.4248   0.08794   0.06334  -0.0511   1.0000   1.0000
   7.000   0.4296   0.08884   0.06427  -0.0513   1.0000   1.0000
   7.100   0.4345   0.08975   0.06522  -0.0516   1.0000   1.0000
   7.200   0.4393   0.09067   0.06617  -0.0519   1.0000   1.0000
   7.300   0.4440   0.09160   0.06714  -0.0521   1.0000   1.0000
   7.400   0.4487   0.09254   0.06812  -0.0524   1.0000   1.0000
   7.500   0.4534   0.09348   0.06911  -0.0527   1.0000   1.0000
   7.600   0.4580   0.09444   0.07012  -0.0530   1.0000   1.0000
   7.700   0.4626   0.09541   0.07113  -0.0532   1.0000   1.0000
   7.800   0.4672   0.09638   0.07215  -0.0535   1.0000   1.0000
   7.900   0.4717   0.09737   0.07319  -0.0538   1.0000   1.0000
   8.000   0.4762   0.09836   0.07423  -0.0542   1.0000   1.0000
   8.100   0.4807   0.09937   0.07529  -0.0545   1.0000   1.0000
   8.200   0.4851   0.10038   0.07635  -0.0548   1.0000   1.0000
   8.300   0.4895   0.10141   0.07743  -0.0551   1.0000   1.0000
   8.400   0.4938   0.10244   0.07852  -0.0554   1.0000   1.0000
   8.500   0.4981   0.10348   0.07963  -0.0558   1.0000   1.0000
   8.600   0.5024   0.10453   0.08073  -0.0561   1.0000   1.0000
   8.700   0.5066   0.10559   0.08185  -0.0565   1.0000   1.0000
   8.800   0.5108   0.10666   0.08298  -0.0568   1.0000   1.0000
   8.900   0.5150   0.10774   0.08412  -0.0572   1.0000   1.0000
   9.000   0.5191   0.10883   0.08527  -0.0576   1.0000   1.0000
   9.100   0.5232   0.10993   0.08643  -0.0580   1.0000   1.0000
   9.200   0.5273   0.11104   0.08760  -0.0583   1.0000   1.0000
   9.300   0.5314   0.11215   0.08878  -0.0587   1.0000   1.0000
   9.400   0.5354   0.11328   0.08998  -0.0591   1.0000   1.0000
   9.500   0.5394   0.11441   0.09118  -0.0596   1.0000   1.0000
   9.600   0.5433   0.11555   0.09239  -0.0600   1.0000   1.0000
   9.700   0.5472   0.11670   0.09361  -0.0604   1.0000   1.0000
   9.800   0.5511   0.11786   0.09484  -0.0608   1.0000   1.0000
   9.900   0.5550   0.11903   0.09607  -0.0613   1.0000   1.0000
  10.000   0.5589   0.12021   0.09732  -0.0617   1.0000   1.0000
  10.100   0.5627   0.12139   0.09858  -0.0622   1.0000   1.0000
  10.200   0.5665   0.12259   0.09984  -0.0627   1.0000   1.0000
  10.300   0.5703   0.12379   0.10111  -0.0631   1.0000   1.0000
  10.400   0.5740   0.12500   0.10239  -0.0636   1.0000   1.0000
  10.500   0.5778   0.12622   0.10370  -0.0641   1.0000   1.0000
  10.600   0.5815   0.12744   0.10500  -0.0646   1.0000   1.0000
  10.700   0.5852   0.12868   0.10631  -0.0651   1.0000   1.0000
  10.800   0.5889   0.12992   0.10762  -0.0657   1.0000   1.0000
  10.900   0.5925   0.13117   0.10895  -0.0662   1.0000   1.0000
  11.000   0.5962   0.13243   0.11028  -0.0667   1.0000   1.0000
  11.100   0.5998   0.13369   0.11162  -0.0673   1.0000   1.0000
  11.200   0.6034   0.13497   0.11296  -0.0678   1.0000   1.0000
  11.300   0.6070   0.13625   0.11432  -0.0684   1.0000   1.0000
  11.400   0.6106   0.13754   0.11570  -0.0690   1.0000   1.0000
  11.500   0.6142   0.13884   0.11707  -0.0696   1.0000   1.0000
  11.600   0.6177   0.14014   0.11845  -0.0702   1.0000   1.0000
  11.700   0.6213   0.14145   0.11984  -0.0708   1.0000   1.0000
  11.800   0.6248   0.14277   0.12123  -0.0714   1.0000   1.0000
  11.900   0.6284   0.14409   0.12263  -0.0720   1.0000   1.0000
  12.000   0.6319   0.14543   0.12404  -0.0727   1.0000   1.0000
  12.100   0.6354   0.14677   0.12545  -0.0733   1.0000   1.0000
  12.200   0.6389   0.14811   0.12688  -0.0740   1.0000   1.0000
  12.300   0.6425   0.14947   0.12830  -0.0747   1.0000   1.0000
  12.400   0.6460   0.15083   0.12974  -0.0753   1.0000   1.0000
  12.500   0.6495   0.15220   0.13118  -0.0760   1.0000   1.0000
  12.600   0.6530   0.15357   0.13265  -0.0767   1.0000   1.0000
  12.700   0.6565   0.15496   0.13410  -0.0774   1.0000   1.0000
  12.800   0.6600   0.15635   0.13556  -0.0781   1.0000   1.0000
  12.900   0.6635   0.15774   0.13703  -0.0788   1.0000   1.0000
  13.000   0.6670   0.15915   0.13850  -0.0796   1.0000   1.0000
  13.100   0.6705   0.16055   0.13998  -0.0803   1.0000   1.0000
  13.200   0.6740   0.16197   0.14147  -0.0811   1.0000   1.0000
  13.300   0.6775   0.16339   0.14296  -0.0818   1.0000   1.0000
  13.400   0.6810   0.16481   0.14445  -0.0826   1.0000   1.0000
  13.500   0.6845   0.16624   0.14595  -0.0833   1.0000   1.0000
  13.600   0.6880   0.16768   0.14745  -0.0841   1.0000   1.0000
  13.700   0.6916   0.16912   0.14898  -0.0849   1.0000   1.0000
  13.800   0.6951   0.17057   0.15049  -0.0857   1.0000   1.0000
  13.900   0.6987   0.17202   0.15201  -0.0865   1.0000   1.0000
  14.000   0.7022   0.17348   0.15353  -0.0873   1.0000   1.0000
  14.100   0.7058   0.17494   0.15505  -0.0881   1.0000   1.0000
  14.200   0.7093   0.17640   0.15658  -0.0889   1.0000   1.0000
  14.300   0.7129   0.17788   0.15812  -0.0897   1.0000   1.0000
  14.400   0.7165   0.17935   0.15965  -0.0905   1.0000   1.0000
  14.500   0.7201   0.18083   0.16120  -0.0914   1.0000   1.0000
  14.600   0.7237   0.18231   0.16274  -0.0922   1.0000   1.0000
  14.700   0.7273   0.18380   0.16428  -0.0930   1.0000   1.0000
  14.800   0.7310   0.18529   0.16584  -0.0939   1.0000   1.0000
  14.900   0.7346   0.18679   0.16738  -0.0947   1.0000   1.0000
  15.000   0.7383   0.18828   0.16894  -0.0956   1.0000   1.0000
  15.100   0.7419   0.18978   0.17051  -0.0964   1.0000   1.0000
  15.200   0.7456   0.19129   0.17207  -0.0973   1.0000   1.0000
  15.300   0.7493   0.19279   0.17363  -0.0981   1.0000   1.0000
  15.400   0.7530   0.19430   0.17520  -0.0990   1.0000   1.0000
  15.500   0.7632   0.19712   0.17812  -0.1016   0.9926   1.0000
  15.600   0.7773   0.20206   0.18318  -0.1052   0.9816   1.0000
  15.700   0.7859   0.20409   0.18530  -0.1074   0.9715   1.0000
  15.800   0.7940   0.20607   0.18736  -0.1093   0.9616   1.0000
  15.900   0.8021   0.20833   0.18969  -0.1112   0.9519   1.0000
  16.100   0.8186   0.21331   0.19485  -0.1150   0.9321   1.0000
  16.200   0.8240   0.21414   0.19575  -0.1161   0.9230   1.0000
  16.300   0.8286   0.21473   0.19638  -0.1170   0.9147   1.0000
  16.400   0.8347   0.21634   0.19805  -0.1183   0.9063   1.0000
  16.500   0.8421   0.21881   0.20058  -0.1198   0.8975   1.0000
  16.600   0.8506   0.22203   0.20387  -0.1215   0.8883   1.0000
  16.700   0.8537   0.22176   0.20364  -0.1220   0.8804   1.0000
  16.800   0.8586   0.22291   0.20484  -0.1230   0.8731   1.0000
  16.900   0.8661   0.22575   0.20773  -0.1244   0.8649   1.0000
  17.000   0.8725   0.22771   0.20977  -0.1256   0.8562   1.0000
  17.100   0.8753   0.22759   0.20968  -0.1261   0.8493   1.0000
  17.200   0.8822   0.23015   0.21229  -0.1274   0.8421   1.0000
  17.300   0.8887   0.23238   0.21459  -0.1285   0.8339   1.0000
  17.400   0.8913   0.23222   0.21445  -0.1289   0.8275   1.0000
  17.500   0.8985   0.23512   0.21740  -0.1303   0.8202   1.0000
  17.600   0.9034   0.23629   0.21862  -0.1311   0.8125   1.0000
  17.700   0.9070   0.23697   0.21932  -0.1317   0.8066   1.0000
  17.800   0.9158   0.24096   0.22337  -0.1333   0.7990   1.0000
  17.900   0.9168   0.23977   0.22221  -0.1333   0.7931   1.0000
  18.000   0.9237   0.24258   0.22506  -0.1346   0.7865   1.0000
  18.100   0.9277   0.24337   0.22589  -0.1352   0.7795   1.0000
  18.200   0.9321   0.24468   0.22725  -0.1360   0.7739   1.0000
  18.300   0.9387   0.24721   0.22984  -0.1370   0.7669   1.0000
  18.400   0.9411   0.24723   0.22987  -0.1375   0.7618   1.0000
  18.500   0.9494   0.25105   0.23376  -0.1389   0.7547   1.0000
  18.600   0.9503   0.24991   0.23262  -0.1390   0.7496   1.0000
  18.700   0.9590   0.25419   0.23695  -0.1404   0.7429   1.0000
  18.800   0.9594   0.25269   0.23546  -0.1405   0.7379   1.0000
  18.900   0.9680   0.25698   0.23981  -0.1419   0.7316   1.0000
  19.000   0.9685   0.25549   0.23833  -0.1420   0.7268   1.0000
  19.100   0.9772   0.25993   0.24282  -0.1434   0.7204   1.0000
  19.200   0.9774   0.25828   0.24120  -0.1435   0.7158   1.0000
  19.300   0.9860   0.26264   0.24563  -0.1449   0.7095   1.0000
  19.400   0.9864   0.26114   0.24412  -0.1450   0.7052   1.0000
  19.500   0.9935   0.26441   0.24745  -0.1461   0.6990   1.0000
  19.600   0.9955   0.26419   0.24724  -0.1466   0.6950   1.0000
  19.700   1.0006   0.26605   0.24914  -0.1474   0.6891   1.0000
  19.800   1.0049   0.26751   0.25062  -0.1481   0.6848   1.0000
  19.900   1.0082   0.26805   0.25120  -0.1487   0.6793   1.0000
  20.000   1.0146   0.27113   0.25430  -0.1497   0.6745   1.0000
