  
       XFOIL         Version 6.99
  
 Calculated polar for: NACA 4412                                       
  
 1 1 Reynolds number fixed          Mach number fixed         
  
 xtrf =   1.000 (top)        1.000 (bottom)  
 Mach =   0.000     Re =     0.100 e 6     Ncrit =   9.000
  
   alpha    CL        CD       CDp       CM     Top_Xtr  Bot_Xtr
  ------ -------- --------- --------- -------- -------- --------
 -10.000  -0.3417   0.11624   0.11103  -0.0412   1.0000   0.1091
  -9.900  -0.3539   0.11583   0.11068  -0.0426   1.0000   0.1094
  -9.800  -0.3440   0.11359   0.10843  -0.0414   1.0000   0.1101
  -9.700  -0.3315   0.11183   0.10666  -0.0399   1.0000   0.1112
  -9.600  -0.3269   0.11068   0.10552  -0.0392   1.0000   0.1124
  -9.500  -0.3250   0.10966   0.10451  -0.0389   1.0000   0.1136
  -9.400  -0.3249   0.10869   0.10356  -0.0387   1.0000   0.1148
  -9.300  -0.3266   0.10777   0.10266  -0.0386   1.0000   0.1162
  -9.200  -0.3316   0.10698   0.10192  -0.0388   1.0000   0.1177
  -9.100  -0.3430   0.10652   0.10151  -0.0394   1.0000   0.1188
  -9.000  -0.3578   0.10624   0.10130  -0.0400   1.0000   0.1192
  -8.900  -0.3730   0.10597   0.10111  -0.0401   1.0000   0.1195
  -8.800  -0.3628   0.10384   0.09897  -0.0390   1.0000   0.1201
  -8.700  -0.3478   0.10206   0.09716  -0.0375   1.0000   0.1212
  -8.600  -0.3431   0.10104   0.09615  -0.0365   1.0000   0.1224
  -8.500  -0.3425   0.10020   0.09533  -0.0357   1.0000   0.1237
  -8.400  -0.3447   0.09945   0.09461  -0.0350   1.0000   0.1251
  -8.300  -0.3497   0.09878   0.09397  -0.0344   1.0000   0.1265
  -8.200  -0.3579   0.09823   0.09347  -0.0338   1.0000   0.1277
  -8.100  -0.3702   0.09787   0.09317  -0.0331   1.0000   0.1286
  -8.000  -0.3843   0.09762   0.09298  -0.0323   1.0000   0.1291
  -7.900  -0.3985   0.09740   0.09282  -0.0312   1.0000   0.1293
  -7.800  -0.4131   0.09718   0.09266  -0.0300   1.0000   0.1295
  -7.700  -0.4279   0.09673   0.09227  -0.0298   1.0000   0.1297
  -7.600  -0.4436   0.09592   0.09152  -0.0309   1.0000   0.1298
  -7.500  -0.4201   0.09407   0.08964  -0.0268   1.0000   0.1312
  -7.400  -0.4077   0.09293   0.08848  -0.0254   1.0000   0.1330
  -7.300  -0.4112   0.09233   0.08790  -0.0241   1.0000   0.1340
  -7.200  -0.4168   0.09174   0.08735  -0.0230   1.0000   0.1349
  -7.100  -0.4227   0.09105   0.08670  -0.0223   1.0000   0.1360
  -7.000  -0.4298   0.09030   0.08597  -0.0220   1.0000   0.1372
  -6.900  -0.4397   0.08944   0.08516  -0.0225   1.0000   0.1386
  -6.800  -0.4574   0.08815   0.08390  -0.0257   1.0000   0.1400
  -6.600  -0.4656   0.08531   0.08110  -0.0264   1.0000   0.1413
  -6.500  -0.4617   0.08462   0.08043  -0.0239   1.0000   0.1421
  -6.400  -0.4598   0.08390   0.07973  -0.0223   1.0000   0.1430
  -6.300  -0.4595   0.08311   0.07896  -0.0213   1.0000   0.1442
  -6.200  -0.4603   0.08222   0.07807  -0.0209   1.0000   0.1455
  -6.100  -0.4622   0.08114   0.07700  -0.0212   1.0000   0.1473
  -5.900  -0.4606   0.07664   0.07244  -0.0282   0.9980   0.1528
  -5.800  -0.4486   0.07570   0.07151  -0.0276   0.9962   0.1546
  -5.700  -0.4355   0.07411   0.06989  -0.0301   0.9933   0.1591
  -5.600  -0.4222   0.07095   0.06665  -0.0363   0.9899   0.1644
  -5.500  -0.4103   0.06996   0.06566  -0.0363   0.9875   0.1667
  -5.300  -0.3830   0.06558   0.06114  -0.0437   0.9815   0.1764
  -5.200  -0.3719   0.06441   0.05995  -0.0445   0.9782   0.1793
  -5.100  -0.3574   0.06188   0.05730  -0.0493   0.9747   0.1870
  -5.000  -0.3433   0.06082   0.05625  -0.0500   0.9728   0.1902
  -4.900  -0.3212   0.05226   0.04699  -0.0622   0.9682   0.1617
  -4.800  -0.2936   0.03413   0.02637  -0.0717   0.9724   0.0996
  -4.700  -0.2806   0.03329   0.02553  -0.0725   0.9690   0.1010
  -4.600  -0.2647   0.03285   0.02513  -0.0737   0.9662   0.1029
  -4.500  -0.2466   0.03209   0.02422  -0.0753   0.9641   0.1053
  -4.400  -0.2308   0.03115   0.02299  -0.0764   0.9613   0.1077
  -4.300  -0.2152   0.03021   0.02170  -0.0774   0.9583   0.1099
  -4.200  -0.1988   0.02978   0.02139  -0.0787   0.9557   0.1124
  -4.100  -0.1801   0.02929   0.02080  -0.0802   0.9538   0.1158
  -4.000  -0.1664   0.02869   0.01993  -0.0807   0.9500   0.1189
  -3.900  -0.1510   0.02819   0.01943  -0.0817   0.9470   0.1219
  -3.800  -0.1332   0.02782   0.01905  -0.0831   0.9447   0.1259
  -3.700  -0.1133   0.02726   0.01825  -0.0847   0.9430   0.1306
  -3.600  -0.1034   0.02699   0.01807  -0.0847   0.9381   0.1336
  -3.500  -0.0863   0.02663   0.01761  -0.0858   0.9354   0.1387
  -3.400  -0.0678   0.02621   0.01719  -0.0873   0.9334   0.1438
  -3.300  -0.0547   0.02596   0.01690  -0.0877   0.9295   0.1490
  -3.200  -0.0401   0.02562   0.01654  -0.0884   0.9260   0.1542
  -3.100  -0.0221   0.02532   0.01618  -0.0897   0.9236   0.1615
  -3.000  -0.0030   0.02496   0.01589  -0.0912   0.9219   0.1685
  -2.900   0.0066   0.02478   0.01564  -0.0909   0.9166   0.1748
  -2.800   0.0232   0.02450   0.01541  -0.0920   0.9138   0.1828
  -2.700   0.0418   0.02418   0.01513  -0.0934   0.9118   0.1921
  -2.600   0.0546   0.02397   0.01494  -0.0937   0.9078   0.2005
  -2.500   0.0686   0.02374   0.01473  -0.0943   0.9040   0.2104
  -2.400   0.0866   0.02344   0.01448  -0.0955   0.9017   0.2224
  -2.300   0.1061   0.02312   0.01422  -0.0970   0.9001   0.2361
  -2.200   0.1148   0.02301   0.01414  -0.0966   0.8945   0.2464
  -2.100   0.1314   0.02273   0.01393  -0.0976   0.8917   0.2614
  -2.000   0.1504   0.02241   0.01366  -0.0990   0.8899   0.2797
  -1.900   0.1676   0.02211   0.01346  -0.1001   0.8876   0.2982
  -1.800   0.1767   0.02198   0.01338  -0.0997   0.8820   0.3142
  -1.700   0.1947   0.02161   0.01313  -0.1009   0.8799   0.3379
  -1.600   0.2133   0.02117   0.01286  -0.1022   0.8784   0.3653
  -1.500   0.2226   0.02097   0.01280  -0.1018   0.8732   0.3892
  -1.400   0.2368   0.02058   0.01262  -0.1023   0.8701   0.4254
  -1.300   0.2527   0.02006   0.01242  -0.1029   0.8682   0.4839
  -1.200   0.2674   0.01939   0.01227  -0.1031   0.8667   0.5952
  -1.100   0.2693   0.01905   0.01242  -0.1007   0.8607   0.7185
  -1.000   0.3041   0.01842   0.01214  -0.1037   0.8601   1.0000
  -0.900   0.3214   0.01829   0.01188  -0.1047   0.8574   1.0000
  -0.800   0.3401   0.01813   0.01159  -0.1059   0.8556   1.0000
  -0.700   0.3471   0.01823   0.01162  -0.1051   0.8490   1.0000
  -0.600   0.3635   0.01810   0.01139  -0.1059   0.8463   1.0000
  -0.500   0.3813   0.01793   0.01113  -0.1069   0.8443   1.0000
  -0.400   0.3881   0.01804   0.01118  -0.1061   0.8377   1.0000
  -0.300   0.4039   0.01791   0.01097  -0.1067   0.8349   1.0000
  -0.200   0.4211   0.01773   0.01072  -0.1075   0.8330   1.0000
  -0.100   0.4275   0.01787   0.01081  -0.1066   0.8261   1.0000
   0.000   0.4431   0.01773   0.01060  -0.1072   0.8234   1.0000
   0.100   0.4549   0.01771   0.01053  -0.1072   0.8192   1.0000
   0.200   0.4658   0.01771   0.01048  -0.1070   0.8143   1.0000
   0.300   0.4812   0.01757   0.01028  -0.1075   0.8117   1.0000
   0.400   0.4906   0.01764   0.01030  -0.1071   0.8063   1.0000
   0.500   0.5032   0.01758   0.01020  -0.1072   0.8024   1.0000
   0.600   0.5186   0.01744   0.00999  -0.1077   0.7999   1.0000
   0.700   0.5264   0.01757   0.01009  -0.1070   0.7938   1.0000
   0.800   0.5399   0.01749   0.00996  -0.1072   0.7904   1.0000
   0.900   0.5552   0.01735   0.00976  -0.1077   0.7880   1.0000
   1.000   0.5619   0.01753   0.00992  -0.1069   0.7814   1.0000
   1.100   0.5759   0.01744   0.00978  -0.1072   0.7783   1.0000
   1.200   0.5857   0.01751   0.00982  -0.1068   0.7734   1.0000
   1.300   0.5970   0.01752   0.00980  -0.1067   0.7690   1.0000
   1.400   0.6113   0.01742   0.00965  -0.1070   0.7662   1.0000
   1.500   0.6193   0.01758   0.00979  -0.1065   0.7604   1.0000
   1.600   0.6318   0.01756   0.00972  -0.1065   0.7567   1.0000
   1.700   0.6450   0.01751   0.00963  -0.1067   0.7536   1.0000
   1.800   0.6530   0.01768   0.00978  -0.1061   0.7478   1.0000
   1.900   0.6662   0.01763   0.00969  -0.1063   0.7446   1.0000
   2.000   0.6760   0.01773   0.00978  -0.1060   0.7400   1.0000
   2.100   0.6866   0.01780   0.00982  -0.1058   0.7355   1.0000
   2.200   0.7001   0.01775   0.00973  -0.1060   0.7326   1.0000
   2.300   0.7083   0.01793   0.00990  -0.1055   0.7272   1.0000
   2.400   0.7200   0.01796   0.00991  -0.1054   0.7234   1.0000
   2.500   0.7337   0.01792   0.00981  -0.1056   0.7207   1.0000
   2.600   0.7409   0.01815   0.01005  -0.1050   0.7149   1.0000
   2.700   0.7530   0.01816   0.01004  -0.1050   0.7114   1.0000
   2.800   0.7646   0.01822   0.01007  -0.1050   0.7079   1.0000
   2.900   0.7733   0.01839   0.01024  -0.1046   0.7029   1.0000
   3.000   0.7857   0.01840   0.01022  -0.1046   0.6997   1.0000
   3.100   0.7958   0.01853   0.01034  -0.1044   0.6955   1.0000
   3.200   0.8055   0.01866   0.01048  -0.1041   0.6911   1.0000
   3.300   0.8181   0.01867   0.01045  -0.1042   0.6880   1.0000
   3.400   0.8273   0.01884   0.01063  -0.1039   0.6835   1.0000
   3.500   0.8375   0.01896   0.01074  -0.1036   0.6794   1.0000
   3.600   0.8502   0.01897   0.01071  -0.1037   0.6764   1.0000
   3.700   0.8587   0.01918   0.01094  -0.1033   0.6718   1.0000
   3.800   0.8692   0.01929   0.01105  -0.1031   0.6678   1.0000
   3.900   0.8821   0.01930   0.01102  -0.1033   0.6649   1.0000
   4.000   0.8901   0.01953   0.01129  -0.1028   0.6601   1.0000
   4.100   0.9008   0.01963   0.01138  -0.1026   0.6563   1.0000
   4.200   0.9138   0.01965   0.01136  -0.1028   0.6534   1.0000
   4.300   0.9212   0.01990   0.01166  -0.1022   0.6486   1.0000
   4.400   0.9321   0.02000   0.01175  -0.1021   0.6448   1.0000
   4.500   0.9453   0.02001   0.01172  -0.1022   0.6419   1.0000
   4.600   0.9523   0.02029   0.01205  -0.1016   0.6369   1.0000
   4.700   0.9633   0.02038   0.01214  -0.1015   0.6332   1.0000
   4.800   0.9767   0.02038   0.01211  -0.1017   0.6304   1.0000
   4.900   0.9831   0.02068   0.01248  -0.1010   0.6252   1.0000
   5.000   0.9944   0.02076   0.01254  -0.1009   0.6216   1.0000
   5.100   1.0065   0.02082   0.01259  -0.1009   0.6183   1.0000
   5.200   1.0138   0.02108   0.01290  -0.1004   0.6134   1.0000
   5.300   1.0255   0.02114   0.01296  -0.1003   0.6098   1.0000
   5.400   1.0360   0.02128   0.01309  -0.1001   0.6060   1.0000
   5.500   1.0443   0.02148   0.01334  -0.0997   0.6013   1.0000
   5.600   1.0567   0.02152   0.01335  -0.0997   0.5979   1.0000
   5.700   1.0653   0.02172   0.01359  -0.0993   0.5934   1.0000
   5.800   1.0750   0.02186   0.01375  -0.0990   0.5890   1.0000
   5.900   1.0883   0.02186   0.01372  -0.0991   0.5857   1.0000
   6.000   1.0948   0.02214   0.01407  -0.0984   0.5804   1.0000
   6.100   1.1060   0.02220   0.01413  -0.0983   0.5763   1.0000
   6.200   1.1166   0.02231   0.01424  -0.0980   0.5721   1.0000
   6.300   1.1248   0.02249   0.01447  -0.0975   0.5670   1.0000
   6.400   1.1380   0.02247   0.01442  -0.0976   0.5633   1.0000
   6.500   1.1445   0.02272   0.01474  -0.0969   0.5577   1.0000
   6.600   1.1561   0.02274   0.01474  -0.0967   0.5532   1.0000
   6.700   1.1648   0.02289   0.01492  -0.0963   0.5481   1.0000
   6.800   1.1748   0.02295   0.01499  -0.0959   0.5429   1.0000
   6.900   1.1849   0.02302   0.01506  -0.0956   0.5378   1.0000
   7.000   1.1938   0.02311   0.01518  -0.0951   0.5321   1.0000
   7.100   1.2042   0.02314   0.01520  -0.0948   0.5268   1.0000
   7.200   1.2128   0.02322   0.01531  -0.0942   0.5208   1.0000
   7.300   1.2226   0.02326   0.01535  -0.0938   0.5152   1.0000
   7.400   1.2316   0.02331   0.01542  -0.0933   0.5090   1.0000
   7.500   1.2403   0.02338   0.01551  -0.0927   0.5031   1.0000
   7.600   1.2502   0.02339   0.01551  -0.0923   0.4970   1.0000
   7.700   1.2577   0.02350   0.01567  -0.0916   0.4906   1.0000
   7.800   1.2686   0.02347   0.01559  -0.0913   0.4848   1.0000
   7.900   1.2747   0.02361   0.01581  -0.0904   0.4779   1.0000
   8.000   1.2855   0.02359   0.01574  -0.0901   0.4720   1.0000
   8.100   1.2916   0.02371   0.01593  -0.0892   0.4649   1.0000
   8.200   1.2998   0.02377   0.01600  -0.0886   0.4584   1.0000
   8.300   1.3083   0.02380   0.01603  -0.0880   0.4517   1.0000
   8.400   1.3143   0.02391   0.01621  -0.0870   0.4445   1.0000
   8.500   1.3229   0.02393   0.01621  -0.0864   0.4377   1.0000
   8.600   1.3290   0.02402   0.01634  -0.0855   0.4302   1.0000
   8.700   1.3348   0.02413   0.01650  -0.0845   0.4226   1.0000
   8.800   1.3419   0.02418   0.01654  -0.0837   0.4151   1.0000
   8.900   1.3476   0.02426   0.01665  -0.0827   0.4071   1.0000
   9.000   1.3520   0.02439   0.01684  -0.0815   0.3986   1.0000
   9.100   1.3568   0.02449   0.01698  -0.0804   0.3900   1.0000
   9.200   1.3614   0.02460   0.01710  -0.0792   0.3812   1.0000
   9.300   1.3656   0.02472   0.01722  -0.0780   0.3720   1.0000
   9.400   1.3691   0.02487   0.01738  -0.0767   0.3624   1.0000
   9.500   1.3718   0.02506   0.01759  -0.0753   0.3520   1.0000
   9.600   1.3739   0.02528   0.01780  -0.0738   0.3410   1.0000
   9.700   1.3752   0.02554   0.01807  -0.0722   0.3293   1.0000
   9.800   1.3757   0.02585   0.01837  -0.0705   0.3169   1.0000
   9.900   1.3749   0.02619   0.01868  -0.0687   0.3045   1.0000
  10.000   1.3732   0.02660   0.01904  -0.0667   0.2919   1.0000
  10.100   1.3710   0.02708   0.01945  -0.0647   0.2788   1.0000
  10.200   1.3684   0.02764   0.01994  -0.0628   0.2651   1.0000
  10.300   1.3653   0.02829   0.02052  -0.0610   0.2509   1.0000
  10.400   1.3617   0.02901   0.02114  -0.0591   0.2375   1.0000
  10.600   1.3541   0.03067   0.02261  -0.0557   0.2120   1.0000
  10.700   1.3503   0.03157   0.02343  -0.0541   0.2004   1.0000
  10.800   1.3467   0.03251   0.02428  -0.0525   0.1899   1.0000
  10.900   1.3433   0.03348   0.02516  -0.0511   0.1806   1.0000
  11.000   1.3402   0.03446   0.02605  -0.0498   0.1723   1.0000
  11.100   1.3374   0.03545   0.02695  -0.0486   0.1650   1.0000
  11.200   1.3357   0.03641   0.02787  -0.0475   0.1573   1.0000
  11.300   1.3343   0.03737   0.02879  -0.0464   0.1507   1.0000
  11.400   1.3329   0.03834   0.02965  -0.0454   0.1455   1.0000
  11.500   1.3327   0.03926   0.03058  -0.0445   0.1393   1.0000
  11.600   1.3325   0.04018   0.03141  -0.0436   0.1348   1.0000
  11.700   1.3331   0.04107   0.03232  -0.0428   0.1296   1.0000
  11.800   1.3341   0.04194   0.03308  -0.0419   0.1257   1.0000
  11.900   1.3354   0.04281   0.03400  -0.0412   0.1212   1.0000
  12.000   1.3377   0.04361   0.03469  -0.0405   0.1177   1.0000
  12.100   1.3398   0.04446   0.03559  -0.0398   0.1139   1.0000
  12.200   1.3424   0.04525   0.03636  -0.0391   0.1105   1.0000
  12.300   1.3471   0.04596   0.03696  -0.0385   0.1073   1.0000
  12.400   1.3493   0.04681   0.03790  -0.0379   0.1042   1.0000
  12.500   1.3536   0.04753   0.03857  -0.0373   0.1014   1.0000
  12.600   1.3609   0.04815   0.03908  -0.0368   0.0985   1.0000
  12.700   1.3630   0.04902   0.04007  -0.0362   0.0960   1.0000
  12.800   1.3673   0.04976   0.04083  -0.0357   0.0936   1.0000
  12.900   1.3809   0.05014   0.04098  -0.0354   0.0906   1.0000
  13.000   1.3818   0.05110   0.04210  -0.0348   0.0890   1.0000
  13.100   1.3849   0.05195   0.04304  -0.0342   0.0870   1.0000
  13.200   1.3902   0.05268   0.04376  -0.0338   0.0851   1.0000
  13.300   1.4071   0.05305   0.04393  -0.0338   0.0824   1.0000
  13.400   1.4073   0.05407   0.04512  -0.0331   0.0812   1.0000
  13.500   1.4101   0.05501   0.04616  -0.0325   0.0797   1.0000
  13.600   1.4142   0.05587   0.04709  -0.0321   0.0782   1.0000
  13.700   1.4213   0.05658   0.04778  -0.0317   0.0767   1.0000
  13.800   1.4394   0.05713   0.04819  -0.0319   0.0746   1.0000
  13.900   1.4375   0.05828   0.04951  -0.0311   0.0738   1.0000
  14.000   1.4375   0.05942   0.05078  -0.0305   0.0729   1.0000
  14.100   1.4389   0.06050   0.05197  -0.0300   0.0719   1.0000
  14.200   1.4424   0.06148   0.05302  -0.0296   0.0708   1.0000
  14.300   1.4478   0.06235   0.05392  -0.0292   0.0697   1.0000
  14.400   1.4611   0.06299   0.05447  -0.0292   0.0683   1.0000
  14.500   1.4690   0.06413   0.05564  -0.0290   0.0672   1.0000
  14.600   1.4643   0.06549   0.05716  -0.0283   0.0669   1.0000
  14.700   1.4600   0.06690   0.05872  -0.0276   0.0665   1.0000
  14.800   1.4560   0.06834   0.06031  -0.0271   0.0660   1.0000
  14.900   1.4519   0.06981   0.06192  -0.0266   0.0656   1.0000
  15.000   1.4480   0.07130   0.06354  -0.0261   0.0652   1.0000
  15.100   1.4441   0.07282   0.06517  -0.0257   0.0648   1.0000
  15.200   1.4403   0.07433   0.06680  -0.0254   0.0644   1.0000
  15.300   1.4368   0.07586   0.06843  -0.0251   0.0640   1.0000
  15.400   1.4337   0.07737   0.07003  -0.0249   0.0635   1.0000
  15.500   1.4317   0.07880   0.07154  -0.0247   0.0631   1.0000
  15.600   1.4316   0.08012   0.07291  -0.0245   0.0626   1.0000
  15.700   1.4648   0.07997   0.07249  -0.0243   0.0608   1.0000
  15.800   1.4560   0.08179   0.07444  -0.0241   0.0607   1.0000
  15.900   1.4474   0.08366   0.07645  -0.0239   0.0606   1.0000
  16.000   1.4386   0.08561   0.07852  -0.0239   0.0605   1.0000
  16.100   1.4295   0.08763   0.08067  -0.0240   0.0605   1.0000
  16.200   1.4207   0.08969   0.08286  -0.0241   0.0605   1.0000
  16.300   1.4116   0.09183   0.08512  -0.0244   0.0604   1.0000
  16.400   1.4020   0.09406   0.08746  -0.0248   0.0604   1.0000
  16.500   1.3926   0.09634   0.08985  -0.0253   0.0604   1.0000
  16.600   1.3829   0.09870   0.09233  -0.0259   0.0604   1.0000
  16.700   1.3730   0.10114   0.09488  -0.0267   0.0604   1.0000
  16.800   1.3633   0.10365   0.09749  -0.0276   0.0604   1.0000
  16.900   1.3540   0.10620   0.10014  -0.0285   0.0605   1.0000
  17.000   1.3441   0.10887   0.10291  -0.0297   0.0605   1.0000
  17.100   1.3342   0.11164   0.10577  -0.0309   0.0606   1.0000
  17.200   1.3249   0.11444   0.10866  -0.0323   0.0606   1.0000
  17.300   1.3152   0.11735   0.11165  -0.0338   0.0607   1.0000
  17.400   1.3058   0.12031   0.11470  -0.0353   0.0607   1.0000
  17.700   1.1650   0.15431   0.14934  -0.0611   0.0675   1.0000
  18.100   1.0431   0.22150   0.21635  -0.1030   0.1261   1.0000
  18.200   1.0278   0.22275   0.21754  -0.1079   0.1248   1.0000
  18.300   1.0262   0.22413   0.21891  -0.1098   0.1222   1.0000
  18.400   1.0297   0.22533   0.22012  -0.1104   0.1203   1.0000
  18.500   1.0357   0.22645   0.22126  -0.1103   0.1189   1.0000
  18.600   1.0447   0.22781   0.22265  -0.1095   0.1178   1.0000
  18.700   1.0597   0.23022   0.22511  -0.1074   0.1171   1.0000
  18.800   1.0496   0.23131   0.22614  -0.1112   0.1165   1.0000
  18.900   1.0421   0.23251   0.22731  -0.1148   0.1143   1.0000
  19.000   1.0440   0.23379   0.22859  -0.1159   0.1123   1.0000
  19.100   1.0480   0.23496   0.22977  -0.1163   0.1108   1.0000
  19.200   1.0541   0.23611   0.23094  -0.1162   0.1095   1.0000
  19.300   1.0648   0.23773   0.23259  -0.1148   0.1085   1.0000
  19.400   1.0740   0.24019   0.23506  -0.1141   0.1079   1.0000
  19.500   1.0613   0.24067   0.23549  -0.1190   0.1069   1.0000
  19.600   1.0598   0.24190   0.23672  -0.1212   0.1046   1.0000
  19.700   1.0627   0.24311   0.23793  -0.1220   0.1029   1.0000
  19.800   1.0669   0.24429   0.23912  -0.1224   0.1017   1.0000
  19.900   1.0723   0.24550   0.24036  -0.1224   0.1007   1.0000
  20.000   1.0801   0.24704   0.24191  -0.1218   0.0999   1.0000
