  
       XFOIL         Version 6.99
  
 Calculated polar for: NACA 4412                                       
  
 1 1 Reynolds number fixed          Mach number fixed         
  
 xtrf =   1.000 (top)        1.000 (bottom)  
 Mach =   0.000     Re =     1.000 e 6     Ncrit =   9.000
  
   alpha    CL        CD       CDp       CM     Top_Xtr  Bot_Xtr
  ------ -------- --------- --------- -------- -------- --------
 -10.000  -0.6199   0.01545   0.01076  -0.1079   0.9752   0.0195
  -9.900  -0.6087   0.01525   0.01054  -0.1080   0.9738   0.0197
  -9.800  -0.5971   0.01504   0.01032  -0.1082   0.9725   0.0199
  -9.700  -0.5853   0.01483   0.01009  -0.1085   0.9713   0.0202
  -9.600  -0.5734   0.01463   0.00986  -0.1087   0.9702   0.0204
  -9.500  -0.5617   0.01443   0.00963  -0.1090   0.9692   0.0206
  -9.400  -0.5507   0.01424   0.00941  -0.1090   0.9678   0.0209
  -9.300  -0.5413   0.01408   0.00922  -0.1087   0.9652   0.0211
  -9.200  -0.5308   0.01392   0.00902  -0.1086   0.9631   0.0213
  -9.100  -0.5198   0.01379   0.00886  -0.1086   0.9613   0.0215
  -9.000  -0.5101   0.01339   0.00844  -0.1085   0.9594   0.0219
  -8.900  -0.4995   0.01316   0.00819  -0.1084   0.9578   0.0222
  -8.800  -0.4899   0.01300   0.00802  -0.1082   0.9550   0.0224
  -8.700  -0.4800   0.01286   0.00787  -0.1079   0.9521   0.0227
  -8.600  -0.4697   0.01271   0.00770  -0.1077   0.9495   0.0230
  -8.500  -0.4591   0.01256   0.00753  -0.1076   0.9473   0.0233
  -8.400  -0.4487   0.01242   0.00736  -0.1075   0.9448   0.0236
  -8.300  -0.4386   0.01228   0.00720  -0.1072   0.9417   0.0239
  -8.200  -0.4283   0.01215   0.00704  -0.1071   0.9389   0.0242
  -8.100  -0.4176   0.01204   0.00689  -0.1069   0.9366   0.0245
  -8.000  -0.4073   0.01178   0.00660  -0.1068   0.9346   0.0249
  -7.900  -0.3972   0.01157   0.00639  -0.1067   0.9319   0.0253
  -7.800  -0.3868   0.01143   0.00624  -0.1066   0.9293   0.0256
  -7.700  -0.3761   0.01130   0.00610  -0.1065   0.9268   0.0260
  -7.600  -0.3653   0.01119   0.00597  -0.1064   0.9245   0.0264
  -7.500  -0.3544   0.01108   0.00584  -0.1063   0.9225   0.0268
  -7.400  -0.3436   0.01098   0.00572  -0.1062   0.9198   0.0273
  -7.300  -0.3328   0.01089   0.00560  -0.1062   0.9170   0.0277
  -7.200  -0.3220   0.01076   0.00544  -0.1061   0.9143   0.0281
  -7.100  -0.3116   0.01055   0.00523  -0.1060   0.9118   0.0287
  -7.000  -0.3007   0.01043   0.00509  -0.1059   0.9097   0.0292
  -6.900  -0.2899   0.01033   0.00498  -0.1059   0.9068   0.0297
  -6.800  -0.2789   0.01023   0.00487  -0.1058   0.9039   0.0302
  -6.700  -0.2680   0.01014   0.00476  -0.1057   0.9012   0.0308
  -6.600  -0.2569   0.01006   0.00465  -0.1057   0.8988   0.0313
  -6.500  -0.2459   0.00997   0.00453  -0.1056   0.8962   0.0317
  -6.400  -0.2352   0.00978   0.00434  -0.1055   0.8931   0.0325
  -6.300  -0.2243   0.00968   0.00424  -0.1055   0.8900   0.0332
  -6.200  -0.2133   0.00960   0.00414  -0.1054   0.8871   0.0339
  -6.100  -0.2022   0.00953   0.00405  -0.1054   0.8845   0.0347
  -6.000  -0.1911   0.00946   0.00396  -0.1054   0.8812   0.0354
  -5.900  -0.1800   0.00937   0.00385  -0.1053   0.8779   0.0361
  -5.800  -0.1692   0.00923   0.00370  -0.1052   0.8748   0.0370
  -5.700  -0.1582   0.00915   0.00361  -0.1052   0.8719   0.0379
  -5.600  -0.1470   0.00907   0.00353  -0.1052   0.8686   0.0388
  -5.500  -0.1359   0.00901   0.00345  -0.1051   0.8652   0.0397
  -5.400  -0.1247   0.00897   0.00338  -0.1051   0.8620   0.0404
  -5.300  -0.1138   0.00883   0.00324  -0.1050   0.8589   0.0418
  -5.200  -0.1027   0.00875   0.00316  -0.1050   0.8553   0.0429
  -5.100  -0.0915   0.00869   0.00308  -0.1050   0.8516   0.0441
  -5.000  -0.0804   0.00865   0.00301  -0.1049   0.8482   0.0452
  -4.900  -0.0693   0.00856   0.00291  -0.1049   0.8448   0.0465
  -4.800  -0.0582   0.00847   0.00283  -0.1049   0.8409   0.0480
  -4.700  -0.0471   0.00842   0.00276  -0.1048   0.8372   0.0494
  -4.600  -0.0359   0.00838   0.00270  -0.1048   0.8338   0.0508
  -4.500  -0.0247   0.00830   0.00262  -0.1048   0.8299   0.0525
  -4.400  -0.0136   0.00823   0.00254  -0.1047   0.8259   0.0544
  -4.200   0.0088   0.00815   0.00243  -0.1047   0.8182   0.0578
  -4.100   0.0199   0.00807   0.00235  -0.1046   0.8140   0.0601
  -4.000   0.0309   0.00802   0.00229  -0.1046   0.8101   0.0624
  -3.900   0.0422   0.00798   0.00224  -0.1046   0.8059   0.0646
  -3.800   0.0533   0.00792   0.00218  -0.1046   0.8016   0.0672
  -3.700   0.0644   0.00787   0.00212  -0.1045   0.7975   0.0701
  -3.600   0.0756   0.00784   0.00208  -0.1045   0.7932   0.0727
  -3.500   0.0868   0.00778   0.00202  -0.1045   0.7887   0.0757
  -3.300   0.1091   0.00771   0.00194  -0.1044   0.7800   0.0822
  -3.200   0.1202   0.00766   0.00189  -0.1044   0.7753   0.0862
  -3.100   0.1313   0.00763   0.00185  -0.1043   0.7710   0.0901
  -3.000   0.1425   0.00759   0.00181  -0.1043   0.7663   0.0941
  -2.900   0.1536   0.00755   0.00177  -0.1043   0.7615   0.0987
  -2.700   0.1759   0.00748   0.00170  -0.1042   0.7520   0.1084
  -2.600   0.1869   0.00747   0.00167  -0.1042   0.7472   0.1132
  -2.500   0.1981   0.00742   0.00164  -0.1042   0.7422   0.1191
  -2.400   0.2092   0.00740   0.00161  -0.1041   0.7371   0.1246
  -2.300   0.2203   0.00737   0.00158  -0.1041   0.7323   0.1309
  -2.200   0.2315   0.00735   0.00156  -0.1041   0.7271   0.1369
  -2.100   0.2425   0.00732   0.00154  -0.1040   0.7221   0.1441
  -2.000   0.2536   0.00730   0.00152  -0.1040   0.7170   0.1507
  -1.900   0.2647   0.00727   0.00150  -0.1040   0.7117   0.1583
  -1.800   0.2757   0.00725   0.00148  -0.1040   0.7067   0.1656
  -1.700   0.2869   0.00723   0.00146  -0.1039   0.7013   0.1736
  -1.600   0.2979   0.00722   0.00145  -0.1039   0.6962   0.1821
  -1.500   0.3090   0.00719   0.00144  -0.1039   0.6908   0.1908
  -1.400   0.3201   0.00718   0.00143  -0.1038   0.6854   0.1994
  -1.300   0.3311   0.00716   0.00142  -0.1038   0.6802   0.2091
  -1.200   0.3422   0.00714   0.00141  -0.1038   0.6747   0.2189
  -1.100   0.3531   0.00714   0.00140  -0.1037   0.6695   0.2289
  -0.900   0.3752   0.00711   0.00140  -0.1037   0.6585   0.2506
  -0.800   0.3863   0.00709   0.00140  -0.1037   0.6532   0.2623
  -0.700   0.3973   0.00707   0.00139  -0.1036   0.6477   0.2746
  -0.600   0.4083   0.00706   0.00140  -0.1036   0.6426   0.2876
  -0.500   0.4193   0.00704   0.00140  -0.1036   0.6371   0.3011
  -0.400   0.4302   0.00704   0.00140  -0.1035   0.6320   0.3157
  -0.300   0.4413   0.00701   0.00141  -0.1035   0.6266   0.3315
  -0.200   0.4522   0.00699   0.00141  -0.1035   0.6213   0.3496
  -0.100   0.4631   0.00695   0.00142  -0.1035   0.6163   0.3697
   0.000   0.4740   0.00690   0.00142  -0.1034   0.6109   0.3956
   0.100   0.4846   0.00683   0.00144  -0.1034   0.6060   0.4343
   0.200   0.4953   0.00670   0.00146  -0.1034   0.6010   0.4896
   0.300   0.5057   0.00660   0.00148  -0.1033   0.5959   0.5448
   0.400   0.5162   0.00650   0.00151  -0.1032   0.5912   0.5954
   0.500   0.5266   0.00641   0.00154  -0.1031   0.5863   0.6433
   0.600   0.5367   0.00634   0.00157  -0.1029   0.5817   0.6903
   0.700   0.5469   0.00623   0.00160  -0.1026   0.5771   0.7391
   0.800   0.5565   0.00614   0.00163  -0.1023   0.5724   0.7872
   0.900   0.5653   0.00605   0.00167  -0.1017   0.5683   0.8387
   1.000   0.5732   0.00595   0.00171  -0.1008   0.5640   0.8906
   1.100   0.5819   0.00591   0.00175  -0.1000   0.5597   0.9377
   1.200   0.5982   0.00593   0.00177  -0.1010   0.5553   0.9723
   1.300   0.6161   0.00596   0.00178  -0.1025   0.5505   0.9898
   1.400   0.6336   0.00600   0.00179  -0.1040   0.5459   0.9997
   1.500   0.6443   0.00605   0.00181  -0.1039   0.5421   1.0000
   1.600   0.6550   0.00609   0.00182  -0.1038   0.5381   1.0000
   1.700   0.6656   0.00613   0.00184  -0.1036   0.5341   1.0000
   1.800   0.6760   0.00619   0.00187  -0.1035   0.5306   1.0000
   1.900   0.6869   0.00622   0.00189  -0.1034   0.5269   1.0000
   2.000   0.6976   0.00626   0.00191  -0.1033   0.5232   1.0000
   2.100   0.7082   0.00632   0.00194  -0.1032   0.5197   1.0000
   2.200   0.7189   0.00636   0.00196  -0.1031   0.5164   1.0000
   2.300   0.7298   0.00640   0.00198  -0.1030   0.5130   1.0000
   2.400   0.7405   0.00644   0.00201  -0.1029   0.5096   1.0000
   2.500   0.7511   0.00650   0.00204  -0.1028   0.5064   1.0000
   2.600   0.7620   0.00654   0.00207  -0.1027   0.5033   1.0000
   2.700   0.7729   0.00658   0.00210  -0.1027   0.5001   1.0000
   2.800   0.7837   0.00663   0.00213  -0.1026   0.4969   1.0000
   2.900   0.7943   0.00669   0.00216  -0.1025   0.4939   1.0000
   3.000   0.8052   0.00673   0.00219  -0.1024   0.4910   1.0000
   3.100   0.8161   0.00677   0.00222  -0.1024   0.4880   1.0000
   3.200   0.8270   0.00682   0.00226  -0.1023   0.4849   1.0000
   3.300   0.8376   0.00687   0.00230  -0.1022   0.4819   1.0000
   3.400   0.8484   0.00693   0.00233  -0.1021   0.4792   1.0000
   3.500   0.8594   0.00696   0.00237  -0.1021   0.4763   1.0000
   3.600   0.8703   0.00701   0.00240  -0.1020   0.4732   1.0000
   3.700   0.8809   0.00706   0.00245  -0.1020   0.4702   1.0000
   3.800   0.8915   0.00713   0.00249  -0.1018   0.4673   1.0000
   3.900   0.9026   0.00716   0.00252  -0.1018   0.4645   1.0000
   4.000   0.9134   0.00721   0.00256  -0.1018   0.4614   1.0000
   4.100   0.9241   0.00727   0.00261  -0.1017   0.4582   1.0000
   4.200   0.9346   0.00734   0.00265  -0.1016   0.4552   1.0000
   4.300   0.9456   0.00737   0.00269  -0.1015   0.4521   1.0000
   4.400   0.9565   0.00742   0.00274  -0.1015   0.4487   1.0000
   4.500   0.9671   0.00748   0.00278  -0.1014   0.4452   1.0000
   4.600   0.9775   0.00755   0.00283  -0.1013   0.4418   1.0000
   4.700   0.9885   0.00759   0.00287  -0.1012   0.4381   1.0000
   4.800   0.9991   0.00765   0.00292  -0.1011   0.4340   1.0000
   5.000   1.0203   0.00778   0.00302  -0.1010   0.4258   1.0000
   5.100   1.0309   0.00784   0.00307  -0.1009   0.4213   1.0000
   5.200   1.0411   0.00792   0.00313  -0.1007   0.4170   1.0000
   5.300   1.0520   0.00797   0.00317  -0.1007   0.4126   1.0000
   5.400   1.0625   0.00804   0.00323  -0.1005   0.4079   1.0000
   5.500   1.0728   0.00811   0.00329  -0.1004   0.4035   1.0000
   5.600   1.0835   0.00817   0.00334  -0.1003   0.3985   1.0000
   5.700   1.0937   0.00826   0.00340  -0.1002   0.3934   1.0000
   5.800   1.1043   0.00832   0.00346  -0.1001   0.3884   1.0000
   5.900   1.1145   0.00840   0.00352  -0.1000   0.3827   1.0000
   6.000   1.1248   0.00848   0.00359  -0.0998   0.3773   1.0000
   6.100   1.1350   0.00857   0.00365  -0.0997   0.3711   1.0000
   6.200   1.1451   0.00866   0.00373  -0.0995   0.3651   1.0000
   6.300   1.1550   0.00877   0.00380  -0.0993   0.3582   1.0000
   6.400   1.1650   0.00887   0.00388  -0.0991   0.3515   1.0000
   6.500   1.1746   0.00899   0.00397  -0.0989   0.3441   1.0000
   6.600   1.1845   0.00910   0.00405  -0.0987   0.3364   1.0000
   6.700   1.1941   0.00923   0.00415  -0.0984   0.3289   1.0000
   6.800   1.2034   0.00937   0.00425  -0.0982   0.3204   1.0000
   6.900   1.2128   0.00951   0.00435  -0.0979   0.3115   1.0000
   7.000   1.2221   0.00966   0.00446  -0.0976   0.3024   1.0000
   7.100   1.2312   0.00982   0.00458  -0.0973   0.2927   1.0000
   7.200   1.2400   0.01000   0.00471  -0.0969   0.2825   1.0000
   7.300   1.2486   0.01019   0.00484  -0.0965   0.2721   1.0000
   7.400   1.2572   0.01038   0.00498  -0.0961   0.2614   1.0000
   7.500   1.2656   0.01059   0.00513  -0.0957   0.2501   1.0000
   7.600   1.2737   0.01081   0.00529  -0.0952   0.2385   1.0000
   7.700   1.2817   0.01105   0.00546  -0.0948   0.2267   1.0000
   7.800   1.2896   0.01128   0.00563  -0.0943   0.2145   1.0000
   7.900   1.2972   0.01154   0.00582  -0.0937   0.2023   1.0000
   8.000   1.3047   0.01179   0.00600  -0.0932   0.1901   1.0000
   8.100   1.3120   0.01206   0.00620  -0.0926   0.1780   1.0000
   8.200   1.3192   0.01233   0.00640  -0.0920   0.1662   1.0000
   8.300   1.3262   0.01260   0.00661  -0.0913   0.1548   1.0000
   8.400   1.3331   0.01288   0.00682  -0.0907   0.1440   1.0000
   8.500   1.3400   0.01315   0.00704  -0.0900   0.1338   1.0000
   8.600   1.3468   0.01342   0.00725  -0.0894   0.1243   1.0000
   8.700   1.3537   0.01369   0.00747  -0.0887   0.1154   1.0000
   8.800   1.3605   0.01395   0.00769  -0.0880   0.1074   1.0000
   8.900   1.3671   0.01422   0.00791  -0.0873   0.0999   1.0000
   9.000   1.3737   0.01447   0.00812  -0.0866   0.0930   1.0000
   9.100   1.3802   0.01473   0.00834  -0.0859   0.0868   1.0000
   9.200   1.3861   0.01498   0.00856  -0.0851   0.0813   1.0000
   9.300   1.3920   0.01521   0.00877  -0.0842   0.0765   1.0000
   9.400   1.3978   0.01545   0.00899  -0.0834   0.0721   1.0000
   9.500   1.4038   0.01569   0.00921  -0.0826   0.0679   1.0000
   9.600   1.4098   0.01592   0.00942  -0.0818   0.0643   1.0000
   9.700   1.4158   0.01616   0.00965  -0.0809   0.0609   1.0000
   9.800   1.4215   0.01642   0.00988  -0.0801   0.0578   1.0000
   9.900   1.4275   0.01666   0.01011  -0.0793   0.0549   1.0000
  10.000   1.4336   0.01690   0.01035  -0.0786   0.0524   1.0000
  10.100   1.4393   0.01716   0.01060  -0.0778   0.0500   1.0000
  10.200   1.4453   0.01740   0.01084  -0.0770   0.0479   1.0000
  10.300   1.4512   0.01765   0.01109  -0.0763   0.0460   1.0000
  10.400   1.4568   0.01792   0.01136  -0.0755   0.0443   1.0000
  10.500   1.4629   0.01817   0.01161  -0.0748   0.0426   1.0000
  10.600   1.4682   0.01846   0.01189  -0.0740   0.0410   1.0000
  10.700   1.4740   0.01872   0.01217  -0.0733   0.0396   1.0000
  10.800   1.4798   0.01899   0.01243  -0.0726   0.0383   1.0000
  10.900   1.4851   0.01929   0.01274  -0.0718   0.0370   1.0000
  11.000   1.4900   0.01961   0.01306  -0.0710   0.0358   1.0000
  11.100   1.4961   0.01987   0.01334  -0.0704   0.0349   1.0000
  11.200   1.5015   0.02017   0.01364  -0.0696   0.0338   1.0000
  11.300   1.5063   0.02050   0.01398  -0.0689   0.0329   1.0000
  11.400   1.5105   0.02089   0.01437  -0.0680   0.0320   1.0000
  11.500   1.5164   0.02116   0.01466  -0.0674   0.0313   1.0000
  11.600   1.5218   0.02148   0.01500  -0.0668   0.0305   1.0000
  11.700   1.5267   0.02182   0.01535  -0.0660   0.0298   1.0000
  11.800   1.5310   0.02221   0.01575  -0.0653   0.0291   1.0000
  11.900   1.5344   0.02267   0.01621  -0.0644   0.0283   1.0000
  12.000   1.5399   0.02300   0.01656  -0.0638   0.0278   1.0000
  12.100   1.5451   0.02334   0.01693  -0.0632   0.0272   1.0000
  12.200   1.5498   0.02373   0.01733  -0.0626   0.0266   1.0000
  12.300   1.5540   0.02415   0.01776  -0.0619   0.0261   1.0000
  12.400   1.5577   0.02461   0.01823  -0.0612   0.0255   1.0000
  12.500   1.5602   0.02517   0.01880  -0.0603   0.0250   1.0000
  12.600   1.5646   0.02560   0.01925  -0.0597   0.0246   1.0000
  12.700   1.5693   0.02601   0.01969  -0.0591   0.0242   1.0000
  12.800   1.5737   0.02645   0.02015  -0.0586   0.0238   1.0000
  12.900   1.5776   0.02693   0.02065  -0.0580   0.0234   1.0000
  13.000   1.5813   0.02743   0.02118  -0.0573   0.0230   1.0000
  13.100   1.5844   0.02799   0.02174  -0.0567   0.0226   1.0000
  13.200   1.5869   0.02860   0.02237  -0.0560   0.0222   1.0000
  13.300   1.5881   0.02933   0.02312  -0.0553   0.0218   1.0000
  13.400   1.5915   0.02988   0.02370  -0.0547   0.0215   1.0000
  13.500   1.5955   0.03040   0.02425  -0.0543   0.0212   1.0000
  13.600   1.5990   0.03096   0.02483  -0.0538   0.0209   1.0000
  13.700   1.6023   0.03156   0.02545  -0.0533   0.0206   1.0000
  13.800   1.6055   0.03216   0.02608  -0.0528   0.0203   1.0000
  13.900   1.6081   0.03282   0.02676  -0.0523   0.0200   1.0000
  14.000   1.6103   0.03352   0.02748  -0.0518   0.0198   1.0000
  14.100   1.6119   0.03429   0.02827  -0.0512   0.0195   1.0000
  14.200   1.6126   0.03516   0.02916  -0.0507   0.0192   1.0000
  14.300   1.6120   0.03616   0.03019  -0.0501   0.0190   1.0000
  14.400   1.6140   0.03693   0.03099  -0.0497   0.0188   1.0000
  14.500   1.6167   0.03764   0.03173  -0.0493   0.0186   1.0000
  14.600   1.6190   0.03839   0.03252  -0.0490   0.0184   1.0000
  14.700   1.6209   0.03919   0.03335  -0.0486   0.0182   1.0000
  14.800   1.6227   0.04001   0.03420  -0.0483   0.0180   1.0000
  14.900   1.6243   0.04087   0.03509  -0.0479   0.0178   1.0000
  15.000   1.6258   0.04175   0.03600  -0.0476   0.0176   1.0000
  15.100   1.6270   0.04267   0.03695  -0.0474   0.0174   1.0000
  15.200   1.6278   0.04364   0.03794  -0.0471   0.0172   1.0000
  15.300   1.6281   0.04467   0.03900  -0.0468   0.0171   1.0000
  15.400   1.6279   0.04578   0.04014  -0.0466   0.0169   1.0000
  15.500   1.6271   0.04697   0.04135  -0.0463   0.0167   1.0000
  15.600   1.6254   0.04828   0.04269  -0.0461   0.0166   1.0000
  15.700   1.6222   0.04978   0.04423  -0.0459   0.0164   1.0000
  15.800   1.6217   0.05098   0.04547  -0.0458   0.0163   1.0000
  15.900   1.6230   0.05198   0.04651  -0.0457   0.0162   1.0000
  16.000   1.6239   0.05303   0.04759  -0.0456   0.0160   1.0000
  16.100   1.6244   0.05415   0.04874  -0.0455   0.0159   1.0000
  16.200   1.6245   0.05531   0.04995  -0.0454   0.0157   1.0000
  16.300   1.6245   0.05652   0.05118  -0.0454   0.0156   1.0000
  16.400   1.6241   0.05777   0.05247  -0.0454   0.0155   1.0000
  16.500   1.6240   0.05898   0.05372  -0.0454   0.0153   1.0000
  16.600   1.6235   0.06026   0.05503  -0.0454   0.0152   1.0000
  16.700   1.6227   0.06158   0.05638  -0.0454   0.0151   1.0000
  16.800   1.6217   0.06294   0.05777  -0.0455   0.0150   1.0000
  16.900   1.6206   0.06434   0.05920  -0.0455   0.0148   1.0000
  17.000   1.6192   0.06576   0.06066  -0.0456   0.0147   1.0000
  17.100   1.6172   0.06729   0.06222  -0.0458   0.0146   1.0000
  17.200   1.6146   0.06889   0.06385  -0.0459   0.0145   1.0000
  17.300   1.6117   0.07055   0.06554  -0.0461   0.0144   1.0000
  17.400   1.6081   0.07232   0.06734  -0.0463   0.0143   1.0000
  17.500   1.6038   0.07419   0.06925  -0.0466   0.0142   1.0000
  17.600   1.5990   0.07613   0.07123  -0.0469   0.0141   1.0000
  17.700   1.5933   0.07823   0.07337  -0.0472   0.0141   1.0000
  17.800   1.5915   0.07980   0.07498  -0.0475   0.0140   1.0000
  17.900   1.5900   0.08134   0.07656  -0.0477   0.0139   1.0000
  18.000   1.5884   0.08288   0.07814  -0.0480   0.0138   1.0000
  18.100   1.5865   0.08446   0.07977  -0.0483   0.0138   1.0000
  18.200   1.5846   0.08607   0.08141  -0.0486   0.0137   1.0000
  18.300   1.5820   0.08777   0.08315  -0.0489   0.0136   1.0000
  18.400   1.5799   0.08942   0.08484  -0.0493   0.0135   1.0000
  18.500   1.5774   0.09114   0.08660  -0.0497   0.0135   1.0000
  18.600   1.5749   0.09286   0.08835  -0.0501   0.0134   1.0000
  18.700   1.5720   0.09464   0.09018  -0.0505   0.0133   1.0000
  18.800   1.5694   0.09638   0.09195  -0.0509   0.0132   1.0000
  18.900   1.5665   0.09816   0.09377  -0.0514   0.0131   1.0000
  19.000   1.5636   0.09996   0.09560  -0.0519   0.0131   1.0000
  19.100   1.5609   0.10175   0.09743  -0.0524   0.0130   1.0000
  19.200   1.5579   0.10358   0.09930  -0.0529   0.0129   1.0000
  19.300   1.5553   0.10536   0.10111  -0.0534   0.0129   1.0000
  19.400   1.5521   0.10726   0.10304  -0.0540   0.0128   1.0000
  19.500   1.5493   0.10908   0.10490  -0.0546   0.0127   1.0000
  19.600   1.5462   0.11096   0.10681  -0.0553   0.0127   1.0000
  19.700   1.5433   0.11281   0.10870  -0.0559   0.0126   1.0000
  19.800   1.5401   0.11471   0.11063  -0.0566   0.0125   1.0000
  19.900   1.5368   0.11665   0.11260  -0.0573   0.0125   1.0000
  20.000   1.5335   0.11860   0.11458  -0.0580   0.0124   1.0000
