  
       XFOIL         Version 6.99
  
 Calculated polar for: NACA 4412                                       
  
 1 1 Reynolds number fixed          Mach number fixed         
  
 xtrf =   1.000 (top)        1.000 (bottom)  
 Mach =   0.000     Re =     0.020 e 6     Ncrit =   9.000
  
   alpha    CL        CD       CDp       CM     Top_Xtr  Bot_Xtr
  ------ -------- --------- --------- -------- -------- --------
 -10.000  -0.2540   0.12573   0.11380  -0.0102   1.0000   0.6835
  -9.900  -0.2453   0.12371   0.11177  -0.0105   1.0000   0.7002
  -9.800  -0.2434   0.12293   0.11099  -0.0098   1.0000   0.7159
  -9.700  -0.2300   0.12009   0.10814  -0.0108   1.0000   0.7350
  -9.600  -0.2252   0.11883   0.10689  -0.0105   1.0000   0.7532
  -9.500  -0.2163   0.11696   0.10500  -0.0108   1.0000   0.7747
  -9.400  -0.2043   0.11458   0.10261  -0.0117   1.0000   0.7979
  -9.300  -0.1935   0.11250   0.10051  -0.0125   1.0000   0.8224
  -9.200  -0.1722   0.10872   0.09668  -0.0153   1.0000   0.8522
  -9.100  -0.1525   0.10547   0.09337  -0.0181   1.0000   0.8863
  -9.000  -0.1274   0.10174   0.08954  -0.0224   1.0000   0.9290
  -8.900  -0.0682   0.09314   0.08072  -0.0355   1.0000   0.9898
  -8.800  -0.0490   0.08988   0.07740  -0.0397   1.0000   1.0000
  -8.700  -0.0458   0.08888   0.07642  -0.0400   1.0000   1.0000
  -8.600  -0.0427   0.08789   0.07544  -0.0402   1.0000   1.0000
  -8.500  -0.0395   0.08691   0.07447  -0.0405   1.0000   1.0000
  -8.400  -0.0364   0.08594   0.07351  -0.0407   1.0000   1.0000
  -8.300  -0.0334   0.08497   0.07256  -0.0409   1.0000   1.0000
  -8.200  -0.0303   0.08402   0.07162  -0.0412   1.0000   1.0000
  -8.100  -0.0273   0.08307   0.07069  -0.0414   1.0000   1.0000
  -8.000  -0.0244   0.08213   0.06976  -0.0416   1.0000   1.0000
  -7.900  -0.0214   0.08121   0.06885  -0.0418   1.0000   1.0000
  -7.800  -0.0185   0.08029   0.06795  -0.0420   1.0000   1.0000
  -7.700  -0.0157   0.07938   0.06705  -0.0421   1.0000   1.0000
  -7.600  -0.0129   0.07848   0.06616  -0.0423   1.0000   1.0000
  -7.500  -0.0101   0.07759   0.06529  -0.0425   1.0000   1.0000
  -7.400  -0.0074   0.07671   0.06443  -0.0426   1.0000   1.0000
  -7.300  -0.0047   0.07584   0.06358  -0.0427   1.0000   1.0000
  -7.200  -0.0021   0.07498   0.06274  -0.0429   1.0000   1.0000
  -7.100   0.0004   0.07414   0.06191  -0.0430   1.0000   1.0000
  -7.000   0.0029   0.07330   0.06109  -0.0431   1.0000   1.0000
  -6.900   0.0053   0.07247   0.06028  -0.0431   1.0000   1.0000
  -6.800   0.0077   0.07166   0.05949  -0.0432   1.0000   1.0000
  -6.700   0.0100   0.07086   0.05870  -0.0433   1.0000   1.0000
  -6.600   0.0123   0.07006   0.05793  -0.0433   1.0000   1.0000
  -6.500   0.0085   0.06987   0.05779  -0.0419   1.0000   0.9968
  -6.400  -0.0326   0.07326   0.06140  -0.0315   1.0000   0.9658
  -6.300  -0.0681   0.07589   0.06423  -0.0233   1.0000   0.9308
  -6.200  -0.1013   0.07816   0.06671  -0.0164   1.0000   0.8943
  -6.000  -0.1581   0.08123   0.07014  -0.0069   1.0000   0.8150
  -5.900  -0.1878   0.08274   0.07183  -0.0028   1.0000   0.7770
  -5.800  -0.2157   0.08392   0.07318   0.0003   1.0000   0.7393
  -5.700  -0.2409   0.08472   0.07415   0.0027   1.0000   0.7049
  -5.600  -0.2607   0.08493   0.07449   0.0040   1.0000   0.6714
  -5.500  -0.2829   0.08532   0.07503   0.0057   1.0000   0.6437
  -5.400  -0.3060   0.08572   0.07558   0.0078   1.0000   0.6213
  -5.300  -0.3241   0.08561   0.07560   0.0090   1.0000   0.5994
  -5.200  -0.3389   0.08523   0.07532   0.0098   1.0000   0.5783
  -5.100  -0.3555   0.08489   0.07509   0.0103   1.0000   0.5585
  -5.000  -0.3733   0.08452   0.07484   0.0107   1.0000   0.5404
  -4.900  -0.3814   0.08352   0.07389   0.0099   1.0000   0.5222
  -4.800  -0.3934   0.08265   0.07310   0.0091   1.0000   0.5058
  -4.700  -0.4036   0.08164   0.07213   0.0078   1.0000   0.4896
  -4.600  -0.4074   0.08030   0.07082   0.0064   1.0000   0.4763
  -4.500  -0.4111   0.07893   0.06947   0.0048   1.0000   0.4640
  -4.400  -0.4139   0.07748   0.06803   0.0029   1.0000   0.4526
  -4.300  -0.4156   0.07594   0.06647   0.0006   1.0000   0.4419
  -4.200  -0.4143   0.07435   0.06487  -0.0012   1.0000   0.4338
  -4.100  -0.4111   0.07280   0.06328  -0.0028   1.0000   0.4273
  -4.000  -0.4084   0.07102   0.06143  -0.0060   1.0000   0.4187
  -3.900  -0.4032   0.06954   0.05992  -0.0070   1.0000   0.4152
  -3.800  -0.3976   0.06773   0.05802  -0.0101   1.0000   0.4094
  -3.700  -0.3908   0.06616   0.05635  -0.0121   1.0000   0.4066
  -3.600  -0.3838   0.06469   0.05483  -0.0134   1.0000   0.4053
  -3.500  -0.3760   0.06320   0.05325  -0.0150   1.0000   0.4040
  -3.400  -0.3674   0.06169   0.05165  -0.0169   1.0000   0.4031
  -3.300  -0.3581   0.06023   0.05009  -0.0187   1.0000   0.4032
  -3.200  -0.3482   0.05880   0.04854  -0.0206   1.0000   0.4043
  -3.100  -0.3375   0.05738   0.04697  -0.0226   1.0000   0.4058
  -3.000  -0.3256   0.05594   0.04535  -0.0250   1.0000   0.4075
  -2.900  -0.3167   0.05486   0.04422  -0.0256   1.0000   0.4111
  -2.800  -0.3064   0.05374   0.04299  -0.0267   1.0000   0.4154
  -2.700  -0.2922   0.05242   0.04143  -0.0293   1.0000   0.4198
  -2.600  -0.2836   0.05155   0.04053  -0.0293   1.0000   0.4251
  -2.500  -0.2697   0.05042   0.03919  -0.0315   1.0000   0.4319
  -2.400  -0.2607   0.04962   0.03835  -0.0315   1.0000   0.4387
  -2.300  -0.2484   0.04870   0.03727  -0.0327   1.0000   0.4464
  -2.200  -0.2358   0.04783   0.03623  -0.0340   1.0000   0.4559
  -2.100  -0.2256   0.04710   0.03543  -0.0343   1.0000   0.4652
  -2.000  -0.2152   0.04639   0.03465  -0.0347   1.0000   0.4754
  -1.900  -0.2045   0.04572   0.03389  -0.0352   1.0000   0.4871
  -1.800  -0.1937   0.04507   0.03316  -0.0356   1.0000   0.4996
  -1.700  -0.1824   0.04445   0.03244  -0.0362   1.0000   0.5140
  -1.600  -0.1730   0.04388   0.03185  -0.0361   1.0000   0.5288
  -1.500  -0.1638   0.04333   0.03130  -0.0360   1.0000   0.5446
  -1.400  -0.1538   0.04280   0.03073  -0.0361   1.0000   0.5636
  -1.300  -0.1454   0.04229   0.03025  -0.0356   1.0000   0.5828
  -1.200  -0.1372   0.04178   0.02979  -0.0351   1.0000   0.6047
  -1.100  -0.1293   0.04127   0.02935  -0.0344   1.0000   0.6296
  -1.000  -0.1218   0.04074   0.02892  -0.0336   1.0000   0.6582
  -0.900  -0.1164   0.04019   0.02853  -0.0322   1.0000   0.6894
  -0.800  -0.1117   0.03958   0.02813  -0.0305   1.0000   0.7271
  -0.700  -0.1093   0.03889   0.02773  -0.0281   1.0000   0.7725
  -0.600  -0.1060   0.03798   0.02726  -0.0257   1.0000   0.8487
  -0.500  -0.0488   0.03703   0.02508  -0.0423   1.0000   1.0000
  -0.400  -0.0334   0.03738   0.02483  -0.0445   1.0000   1.0000
  -0.300  -0.0227   0.03772   0.02479  -0.0453   1.0000   1.0000
  -0.200  -0.0134   0.03806   0.02482  -0.0458   1.0000   1.0000
  -0.100  -0.0047   0.03841   0.02490  -0.0462   1.0000   1.0000
   0.000   0.0035   0.03877   0.02503  -0.0464   1.0000   1.0000
   0.100   0.0115   0.03913   0.02518  -0.0466   1.0000   1.0000
   0.200   0.0193   0.03950   0.02537  -0.0468   1.0000   1.0000
   0.300   0.0270   0.03988   0.02557  -0.0470   1.0000   1.0000
   0.400   0.0345   0.04027   0.02578  -0.0471   1.0000   1.0000
   0.500   0.0420   0.04066   0.02602  -0.0472   1.0000   1.0000
   0.600   0.0494   0.04106   0.02628  -0.0473   1.0000   1.0000
   0.700   0.0567   0.04147   0.02655  -0.0475   1.0000   1.0000
   0.800   0.0639   0.04189   0.02684  -0.0476   1.0000   1.0000
   0.900   0.0711   0.04232   0.02714  -0.0477   1.0000   1.0000
   1.000   0.0782   0.04275   0.02746  -0.0478   1.0000   1.0000
   1.100   0.0853   0.04319   0.02778  -0.0479   1.0000   1.0000
   1.200   0.0923   0.04364   0.02813  -0.0480   1.0000   1.0000
   1.300   0.0993   0.04410   0.02848  -0.0481   1.0000   1.0000
   1.400   0.1062   0.04456   0.02885  -0.0482   1.0000   1.0000
   1.500   0.1131   0.04503   0.02922  -0.0483   1.0000   1.0000
   1.600   0.1200   0.04551   0.02961  -0.0484   1.0000   1.0000
   1.700   0.1268   0.04600   0.03001  -0.0485   1.0000   1.0000
   1.800   0.1336   0.04649   0.03042  -0.0486   1.0000   1.0000
   1.900   0.1404   0.04699   0.03085  -0.0487   1.0000   1.0000
   2.000   0.1471   0.04750   0.03128  -0.0489   1.0000   1.0000
   2.100   0.1538   0.04802   0.03173  -0.0490   1.0000   1.0000
   2.200   0.1604   0.04854   0.03218  -0.0491   1.0000   1.0000
   2.300   0.1670   0.04907   0.03265  -0.0492   1.0000   1.0000
   2.400   0.1736   0.04961   0.03312  -0.0493   1.0000   1.0000
   2.500   0.1802   0.05016   0.03361  -0.0494   1.0000   1.0000
   2.600   0.1867   0.05071   0.03411  -0.0496   1.0000   1.0000
   2.700   0.1932   0.05127   0.03462  -0.0497   1.0000   1.0000
   2.800   0.1996   0.05184   0.03514  -0.0498   1.0000   1.0000
   2.900   0.2060   0.05242   0.03566  -0.0500   1.0000   1.0000
   3.000   0.2124   0.05301   0.03620  -0.0501   1.0000   1.0000
   3.100   0.2187   0.05360   0.03675  -0.0502   1.0000   1.0000
   3.200   0.2250   0.05420   0.03731  -0.0504   1.0000   1.0000
   3.300   0.2313   0.05481   0.03788  -0.0505   1.0000   1.0000
   3.400   0.2375   0.05542   0.03846  -0.0506   1.0000   1.0000
   3.500   0.2437   0.05605   0.03906  -0.0508   1.0000   1.0000
   3.600   0.2499   0.05668   0.03966  -0.0509   1.0000   1.0000
   3.700   0.2560   0.05732   0.04027  -0.0511   1.0000   1.0000
   3.800   0.2621   0.05797   0.04089  -0.0512   1.0000   1.0000
   3.900   0.2681   0.05863   0.04153  -0.0514   1.0000   1.0000
   4.000   0.2741   0.05930   0.04217  -0.0516   1.0000   1.0000
   4.100   0.2801   0.05997   0.04282  -0.0517   1.0000   1.0000
   4.200   0.2860   0.06066   0.04349  -0.0519   1.0000   1.0000
   4.300   0.2919   0.06135   0.04416  -0.0521   1.0000   1.0000
   4.400   0.2978   0.06205   0.04485  -0.0522   1.0000   1.0000
   4.500   0.3036   0.06276   0.04555  -0.0524   1.0000   1.0000
   4.600   0.3094   0.06348   0.04626  -0.0526   1.0000   1.0000
   4.700   0.3151   0.06420   0.04697  -0.0528   1.0000   1.0000
   4.800   0.3209   0.06494   0.04770  -0.0530   1.0000   1.0000
   4.900   0.3265   0.06568   0.04844  -0.0531   1.0000   1.0000
   5.000   0.3321   0.06644   0.04919  -0.0533   1.0000   1.0000
   5.100   0.3377   0.06720   0.04996  -0.0535   1.0000   1.0000
   5.200   0.3433   0.06797   0.05073  -0.0537   1.0000   1.0000
   5.300   0.3488   0.06875   0.05151  -0.0539   1.0000   1.0000
   5.400   0.3542   0.06955   0.05231  -0.0541   1.0000   1.0000
   5.500   0.3597   0.07035   0.05311  -0.0544   1.0000   1.0000
   5.600   0.3650   0.07116   0.05393  -0.0546   1.0000   1.0000
   5.700   0.3704   0.07198   0.05476  -0.0548   1.0000   1.0000
   5.800   0.3757   0.07281   0.05560  -0.0550   1.0000   1.0000
   5.900   0.3809   0.07364   0.05645  -0.0552   1.0000   1.0000
   6.000   0.3862   0.07449   0.05731  -0.0555   1.0000   1.0000
   6.100   0.3913   0.07535   0.05819  -0.0557   1.0000   1.0000
   6.200   0.3965   0.07622   0.05907  -0.0559   1.0000   1.0000
   6.300   0.4016   0.07710   0.05997  -0.0562   1.0000   1.0000
   6.400   0.4066   0.07799   0.06088  -0.0564   1.0000   1.0000
   6.500   0.4116   0.07889   0.06179  -0.0567   1.0000   1.0000
   6.600   0.4166   0.07980   0.06272  -0.0569   1.0000   1.0000
   6.700   0.4215   0.08072   0.06366  -0.0572   1.0000   1.0000
   6.800   0.4264   0.08165   0.06462  -0.0575   1.0000   1.0000
   6.900   0.4313   0.08258   0.06559  -0.0577   1.0000   1.0000
   7.000   0.4361   0.08354   0.06656  -0.0580   1.0000   1.0000
   7.100   0.4409   0.08450   0.06755  -0.0583   1.0000   1.0000
   7.200   0.4456   0.08547   0.06855  -0.0586   1.0000   1.0000
   7.300   0.4503   0.08645   0.06956  -0.0589   1.0000   1.0000
   7.400   0.4549   0.08744   0.07059  -0.0592   1.0000   1.0000
   7.500   0.4595   0.08845   0.07162  -0.0595   1.0000   1.0000
   7.600   0.4641   0.08946   0.07268  -0.0598   1.0000   1.0000
   7.700   0.4686   0.09048   0.07374  -0.0601   1.0000   1.0000
   7.800   0.4731   0.09152   0.07481  -0.0604   1.0000   1.0000
   7.900   0.4776   0.09256   0.07589  -0.0607   1.0000   1.0000
   8.000   0.4820   0.09362   0.07698  -0.0610   1.0000   1.0000
   8.100   0.4864   0.09469   0.07809  -0.0614   1.0000   1.0000
   8.200   0.4907   0.09577   0.07921  -0.0617   1.0000   1.0000
   8.300   0.4950   0.09686   0.08034  -0.0621   1.0000   1.0000
   8.400   0.4993   0.09796   0.08148  -0.0624   1.0000   1.0000
   8.500   0.5035   0.09907   0.08263  -0.0628   1.0000   1.0000
   8.600   0.5077   0.10019   0.08380  -0.0631   1.0000   1.0000
   8.700   0.5119   0.10132   0.08498  -0.0635   1.0000   1.0000
   8.800   0.5160   0.10246   0.08617  -0.0639   1.0000   1.0000
   8.900   0.5201   0.10362   0.08737  -0.0643   1.0000   1.0000
   9.000   0.5241   0.10478   0.08858  -0.0647   1.0000   1.0000
   9.100   0.5281   0.10596   0.08980  -0.0651   1.0000   1.0000
   9.200   0.5321   0.10715   0.09103  -0.0655   1.0000   1.0000
   9.300   0.5361   0.10834   0.09228  -0.0659   1.0000   1.0000
   9.400   0.5400   0.10955   0.09355  -0.0663   1.0000   1.0000
   9.500   0.5439   0.11077   0.09481  -0.0667   1.0000   1.0000
   9.600   0.5478   0.11200   0.09609  -0.0672   1.0000   1.0000
   9.700   0.5516   0.11324   0.09738  -0.0676   1.0000   1.0000
   9.800   0.5555   0.11449   0.09868  -0.0681   1.0000   1.0000
   9.900   0.5593   0.11575   0.10000  -0.0685   1.0000   1.0000
  10.000   0.5630   0.11702   0.10132  -0.0690   1.0000   1.0000
  10.100   0.5670   0.11830   0.10266  -0.0696   0.9994   1.0000
  10.200   0.5826   0.12121   0.10568  -0.0728   0.9910   1.0000
  10.300   0.5965   0.12396   0.10852  -0.0756   0.9823   1.0000
  10.400   0.6088   0.12648   0.11115  -0.0780   0.9730   1.0000
  10.500   0.6190   0.12866   0.11342  -0.0800   0.9635   1.0000
  10.600   0.6272   0.13046   0.11530  -0.0815   0.9539   1.0000
  10.700   0.6346   0.13212   0.11705  -0.0828   0.9441   1.0000
  10.800   0.6410   0.13362   0.11862  -0.0838   0.9344   1.0000
  10.900   0.6469   0.13505   0.12012  -0.0848   0.9251   1.0000
  11.000   0.6534   0.13664   0.12178  -0.0858   0.9158   1.0000
  11.100   0.6607   0.13840   0.12364  -0.0869   0.9065   1.0000
  11.200   0.6691   0.14046   0.12577  -0.0883   0.8974   1.0000
  11.300   0.6783   0.14267   0.12806  -0.0898   0.8876   1.0000
  11.400   0.6877   0.14494   0.13041  -0.0913   0.8774   1.0000
  11.500   0.6904   0.14571   0.13125  -0.0915   0.8679   1.0000
  11.600   0.6941   0.14678   0.13237  -0.0918   0.8588   1.0000
  11.700   0.6994   0.14824   0.13390  -0.0925   0.8496   1.0000
  11.800   0.7060   0.15003   0.13576  -0.0934   0.8405   1.0000
  11.900   0.7142   0.15218   0.13798  -0.0946   0.8312   1.0000
  12.000   0.7227   0.15438   0.14027  -0.0958   0.8210   1.0000
  12.100   0.7288   0.15600   0.14196  -0.0966   0.8110   1.0000
  12.200   0.7300   0.15652   0.14252  -0.0965   0.8025   1.0000
  12.300   0.7343   0.15786   0.14392  -0.0969   0.7937   1.0000
  12.400   0.7405   0.15964   0.14576  -0.0977   0.7846   1.0000
  12.500   0.7485   0.16187   0.14806  -0.0988   0.7754   1.0000
  12.600   0.7570   0.16420   0.15046  -0.0998   0.7653   1.0000
  12.700   0.7590   0.16486   0.15116  -0.0999   0.7561   1.0000
  12.800   0.7610   0.16568   0.15202  -0.0999   0.7481   1.0000
  12.900   0.7666   0.16745   0.15386  -0.1006   0.7398   1.0000
  13.000   0.7743   0.16968   0.15615  -0.1015   0.7304   1.0000
  13.100   0.7830   0.17216   0.15870  -0.1026   0.7204   1.0000
  13.200   0.7814   0.17196   0.15853  -0.1021   0.7131   1.0000
  13.300   0.7858   0.17343   0.16004  -0.1026   0.7053   1.0000
  13.400   0.7933   0.17569   0.16236  -0.1035   0.6965   1.0000
  13.500   0.8022   0.17831   0.16506  -0.1044   0.6869   1.0000
  13.600   0.7997   0.17787   0.16462  -0.1040   0.6803   1.0000
  13.700   0.8053   0.17972   0.16652  -0.1046   0.6727   1.0000
  13.800   0.8141   0.18239   0.16924  -0.1056   0.6636   1.0000
  13.900   0.8142   0.18256   0.16945  -0.1055   0.6564   1.0000
  14.000   0.8184   0.18410   0.17103  -0.1060   0.6498   1.0000
  14.100   0.8276   0.18693   0.17392  -0.1069   0.6411   1.0000
  14.200   0.8270   0.18689   0.17391  -0.1068   0.6343   1.0000
  14.300   0.8322   0.18875   0.17580  -0.1074   0.6280   1.0000
  14.400   0.8416   0.19165   0.17877  -0.1083   0.6194   1.0000
  14.500   0.8390   0.19112   0.17824  -0.1081   0.6142   1.0000
  14.600   0.8476   0.19394   0.18110  -0.1090   0.6069   1.0000
  14.700   0.8478   0.19412   0.18130  -0.1090   0.6006   1.0000
  14.800   0.8540   0.19631   0.18353  -0.1097   0.5948   1.0000
  14.900   0.8578   0.19748   0.18474  -0.1101   0.5876   1.0000
  15.000   0.8607   0.19873   0.18601  -0.1105   0.5826   1.0000
  15.100   0.8676   0.20092   0.18826  -0.1111   0.5753   1.0000
  15.200   0.8684   0.20149   0.18884  -0.1114   0.5711   1.0000
  15.300   0.8758   0.20384   0.19124  -0.1120   0.5639   1.0000
  15.400   0.8762   0.20426   0.19166  -0.1123   0.5597   1.0000
  15.500   0.8832   0.20652   0.19398  -0.1129   0.5528   1.0000
  15.600   0.8846   0.20727   0.19473  -0.1133   0.5490   1.0000
  15.700   0.8889   0.20866   0.19615  -0.1137   0.5427   1.0000
  15.800   0.8935   0.21044   0.19795  -0.1143   0.5385   1.0000
  15.900   0.8953   0.21100   0.19854  -0.1146   0.5328   1.0000
  16.000   0.9029   0.21381   0.20138  -0.1154   0.5280   1.0000
  16.100   0.9022   0.21357   0.20115  -0.1156   0.5236   1.0000
  16.200   0.9135   0.21765   0.20529  -0.1165   0.5177   1.0000
  16.300   0.9105   0.21663   0.20426  -0.1167   0.5145   1.0000
  16.400   0.9160   0.21841   0.20608  -0.1172   0.5087   1.0000
  16.500   0.9205   0.22024   0.20793  -0.1178   0.5050   1.0000
  16.600   0.9210   0.22034   0.20803  -0.1182   0.5006   1.0000
  16.700   0.9323   0.22455   0.21232  -0.1190   0.4952   1.0000
  16.800   0.9296   0.22350   0.21124  -0.1193   0.4924   1.0000
  16.900   0.9335   0.22473   0.21250  -0.1198   0.4871   1.0000
  17.000   0.9407   0.22761   0.21540  -0.1205   0.4832   1.0000
  17.100   0.9397   0.22709   0.21489  -0.1209   0.4797   1.0000
  17.200   0.9459   0.22924   0.21708  -0.1215   0.4747   1.0000
  17.300   0.9505   0.23116   0.21901  -0.1221   0.4716   1.0000
  17.400   0.9505   0.23094   0.21879  -0.1226   0.4677   1.0000
  17.500   0.9585   0.23388   0.22178  -0.1232   0.4626   1.0000
  17.600   0.9606   0.23474   0.22265  -0.1238   0.4599   1.0000
  17.700   0.9615   0.23483   0.22275  -0.1243   0.4560   1.0000
  17.800   0.9694   0.23783   0.22579  -0.1249   0.4514   1.0000
  17.900   0.9716   0.23873   0.22670  -0.1255   0.4489   1.0000
  18.000   0.9724   0.23871   0.22668  -0.1260   0.4450   1.0000
  18.100   0.9800   0.24159   0.22960  -0.1266   0.4404   1.0000
  18.200   0.9828   0.24273   0.23074  -0.1272   0.4378   1.0000
  18.300   0.9832   0.24256   0.23058  -0.1278   0.4342   1.0000
  18.400   0.9895   0.24484   0.23290  -0.1284   0.4300   1.0000
  18.500   0.9949   0.24720   0.23527  -0.1290   0.4273   1.0000
  18.600   0.9943   0.24653   0.23460  -0.1297   0.4242   1.0000
  18.700   0.9990   0.24810   0.23620  -0.1302   0.4198   1.0000
  18.800   1.0070   0.25162   0.23976  -0.1308   0.4165   1.0000
  18.900   1.0057   0.25062   0.23875  -0.1315   0.4141   1.0000
  19.000   1.0087   0.25147   0.23962  -0.1321   0.4101   1.0000
  19.100   1.0175   0.25526   0.24346  -0.1327   0.4063   1.0000
  19.200   1.0179   0.25512   0.24330  -0.1334   0.4043   1.0000
  19.300   1.0190   0.25509   0.24327  -0.1341   0.4007   1.0000
  19.400   1.0251   0.25742   0.24565  -0.1346   0.3967   1.0000
  19.500   1.0305   0.25982   0.24805  -0.1353   0.3942   1.0000
  19.600   1.0301   0.25904   0.24728  -0.1360   0.3914   1.0000
  19.700   1.0338   0.26023   0.24849  -0.1366   0.3876   1.0000
  19.800   1.0429   0.26440   0.25271  -0.1371   0.3842   1.0000
  19.900   1.0423   0.26360   0.25189  -0.1379   0.3823   1.0000
  20.000   1.0437   0.26362   0.25191  -0.1387   0.3790   1.0000
