  
       XFOIL         Version 6.99
  
 Calculated polar for: NACA 4412                                       
  
 1 1 Reynolds number fixed          Mach number fixed         
  
 xtrf =   1.000 (top)        1.000 (bottom)  
 Mach =   0.000     Re =     0.250 e 6     Ncrit =   9.000
  
   alpha    CL        CD       CDp       CM     Top_Xtr  Bot_Xtr
  ------ -------- --------- --------- -------- -------- --------
 -10.000  -0.3529   0.10464   0.10134  -0.0444   1.0000   0.0546
  -9.900  -0.3492   0.10390   0.10061  -0.0436   1.0000   0.0548
  -9.800  -0.3465   0.10315   0.09987  -0.0429   1.0000   0.0551
  -9.700  -0.3450   0.10236   0.09909  -0.0424   1.0000   0.0554
  -9.600  -0.3445   0.10154   0.09828  -0.0419   1.0000   0.0557
  -9.500  -0.3449   0.10070   0.09746  -0.0414   1.0000   0.0561
  -9.400  -0.3460   0.09984   0.09662  -0.0410   1.0000   0.0566
  -9.300  -0.3481   0.09896   0.09576  -0.0405   1.0000   0.0571
  -9.200  -0.3515   0.09805   0.09486  -0.0400   1.0000   0.0577
  -9.100  -0.3565   0.09707   0.09391  -0.0396   1.0000   0.0583
  -9.000  -0.3671   0.09585   0.09273  -0.0396   1.0000   0.0592
  -8.900  -0.3888   0.09420   0.09114  -0.0401   1.0000   0.0598
  -8.800  -0.4071   0.09288   0.08988  -0.0399   1.0000   0.0599
  -8.700  -0.4224   0.09184   0.08887  -0.0392   1.0000   0.0600
  -8.600  -0.4363   0.09099   0.08807  -0.0383   1.0000   0.0601
  -8.500  -0.4511   0.08905   0.08617  -0.0398   0.9989   0.0601
  -8.400  -0.4410   0.08816   0.08527  -0.0384   0.9987   0.0604
  -8.300  -0.4270   0.08810   0.08520  -0.0365   0.9988   0.0607
  -8.200  -0.4150   0.08762   0.08471  -0.0360   0.9983   0.0612
  -8.100  -0.4049   0.08672   0.08380  -0.0366   0.9974   0.0617
  -8.000  -0.3965   0.08539   0.08247  -0.0382   0.9961   0.0625
  -7.900  -0.3906   0.08371   0.08078  -0.0404   0.9940   0.0633
  -7.800  -0.3862   0.08145   0.07852  -0.0438   0.9912   0.0645
  -7.700  -0.4129   0.05518   0.05189  -0.0773   0.9791   0.0537
  -7.600  -0.4020   0.05485   0.05158  -0.0776   0.9773   0.0534
  -7.500  -0.3909   0.05413   0.05086  -0.0784   0.9757   0.0528
  -7.400  -0.3800   0.05241   0.04908  -0.0811   0.9741   0.0555
  -7.300  -0.3661   0.05195   0.04861  -0.0824   0.9732   0.0563
  -7.200  -0.4055   0.02580   0.01971  -0.0917   0.9646   0.0446
  -7.100  -0.3897   0.02538   0.01931  -0.0928   0.9638   0.0452
  -6.900  -0.3661   0.02436   0.01813  -0.0935   0.9588   0.0466
  -6.800  -0.3520   0.02360   0.01716  -0.0943   0.9572   0.0476
  -6.700  -0.3370   0.02286   0.01609  -0.0952   0.9559   0.0486
  -6.600  -0.3218   0.02215   0.01543  -0.0963   0.9550   0.0493
  -6.500  -0.3057   0.02174   0.01502  -0.0975   0.9542   0.0502
  -6.400  -0.2892   0.02135   0.01461  -0.0987   0.9536   0.0512
  -6.300  -0.2803   0.02103   0.01423  -0.0983   0.9497   0.0521
  -6.200  -0.2662   0.02058   0.01362  -0.0989   0.9479   0.0534
  -6.100  -0.2512   0.02003   0.01296  -0.0997   0.9466   0.0545
  -6.000  -0.2356   0.01962   0.01260  -0.1007   0.9457   0.0556
  -5.900  -0.2194   0.01929   0.01226  -0.1018   0.9449   0.0568
  -5.800  -0.2030   0.01895   0.01185  -0.1029   0.9442   0.0583
  -5.700  -0.1867   0.01861   0.01137  -0.1039   0.9435   0.0599
  -5.500  -0.1645   0.01793   0.01076  -0.1040   0.9379   0.0623
  -5.400  -0.1501   0.01766   0.01047  -0.1046   0.9364   0.0640
  -5.300  -0.1351   0.01738   0.01011  -0.1053   0.9351   0.0659
  -5.200  -0.1203   0.01698   0.00968  -0.1061   0.9341   0.0676
  -5.100  -0.1053   0.01668   0.00943  -0.1069   0.9331   0.0694
  -5.000  -0.0938   0.01648   0.00923  -0.1069   0.9305   0.0713
  -4.900  -0.0827   0.01630   0.00898  -0.1068   0.9273   0.0733
  -4.800  -0.0696   0.01595   0.00863  -0.1072   0.9254   0.0754
  -4.700  -0.0557   0.01570   0.00842  -0.1077   0.9239   0.0776
  -4.600  -0.0413   0.01547   0.00817  -0.1083   0.9227   0.0803
  -4.500  -0.0276   0.01519   0.00786  -0.1087   0.9213   0.0830
  -4.400  -0.0193   0.01502   0.00773  -0.1082   0.9167   0.0851
  -4.300  -0.0066   0.01483   0.00754  -0.1084   0.9145   0.0881
  -4.200   0.0067   0.01460   0.00726  -0.1087   0.9127   0.0913
  -4.100   0.0201   0.01433   0.00705  -0.1091   0.9112   0.0945
  -4.000   0.0299   0.01421   0.00692  -0.1088   0.9072   0.0979
  -3.900   0.0411   0.01400   0.00670  -0.1087   0.9042   0.1014
  -3.800   0.0537   0.01380   0.00653  -0.1089   0.9020   0.1053
  -3.700   0.0669   0.01362   0.00631  -0.1092   0.9002   0.1100
  -3.600   0.0764   0.01345   0.00620  -0.1088   0.8961   0.1138
  -3.500   0.0878   0.01332   0.00604  -0.1088   0.8928   0.1189
  -3.400   0.0999   0.01310   0.00587  -0.1089   0.8904   0.1238
  -3.200   0.1217   0.01280   0.00560  -0.1086   0.8835   0.1350
  -3.100   0.1333   0.01266   0.00545  -0.1086   0.8804   0.1416
  -3.000   0.1456   0.01249   0.00530  -0.1087   0.8780   0.1486
  -2.900   0.1555   0.01236   0.00521  -0.1084   0.8736   0.1553
  -2.800   0.1666   0.01224   0.00509  -0.1083   0.8700   0.1634
  -2.700   0.1786   0.01209   0.00495  -0.1084   0.8672   0.1720
  -2.600   0.1889   0.01197   0.00488  -0.1081   0.8630   0.1802
  -2.500   0.1998   0.01185   0.00478  -0.1080   0.8590   0.1896
  -2.400   0.2116   0.01171   0.00466  -0.1080   0.8560   0.1999
  -2.300   0.2219   0.01162   0.00459  -0.1078   0.8514   0.2103
  -2.200   0.2329   0.01151   0.00451  -0.1077   0.8473   0.2216
  -2.100   0.2447   0.01138   0.00440  -0.1077   0.8443   0.2339
  -2.000   0.2547   0.01129   0.00436  -0.1075   0.8391   0.2461
  -1.900   0.2659   0.01118   0.00428  -0.1074   0.8352   0.2596
  -1.800   0.2770   0.01107   0.00420  -0.1073   0.8313   0.2742
  -1.700   0.2874   0.01099   0.00415  -0.1071   0.8262   0.2895
  -1.600   0.2987   0.01086   0.00407  -0.1070   0.8225   0.3061
  -1.500   0.3090   0.01077   0.00403  -0.1069   0.8175   0.3242
  -1.400   0.3198   0.01064   0.00396  -0.1067   0.8130   0.3444
  -1.300   0.3306   0.01051   0.00390  -0.1066   0.8088   0.3681
  -1.200   0.3407   0.01037   0.00386  -0.1064   0.8035   0.3969
  -1.100   0.3513   0.01017   0.00380  -0.1063   0.7996   0.4393
  -1.000   0.3604   0.00995   0.00381  -0.1059   0.7940   0.5023
  -0.900   0.3695   0.00968   0.00380  -0.1054   0.7896   0.5821
  -0.800   0.3776   0.00944   0.00382  -0.1046   0.7846   0.6610
  -0.700   0.3850   0.00921   0.00383  -0.1035   0.7796   0.7373
  -0.600   0.3920   0.00902   0.00385  -0.1021   0.7752   0.8122
  -0.500   0.4026   0.00890   0.00387  -0.1014   0.7698   0.8893
  -0.400   0.4279   0.00883   0.00378  -0.1040   0.7658   0.9582
  -0.300   0.4531   0.00881   0.00372  -0.1069   0.7599   0.9930
  -0.200   0.4688   0.00882   0.00366  -0.1078   0.7551   1.0000
  -0.100   0.4786   0.00885   0.00364  -0.1075   0.7492   1.0000
   0.000   0.4889   0.00888   0.00360  -0.1073   0.7443   1.0000
   0.100   0.4989   0.00891   0.00358  -0.1070   0.7385   1.0000
   0.200   0.5092   0.00894   0.00355  -0.1067   0.7335   1.0000
   0.300   0.5193   0.00898   0.00354  -0.1065   0.7278   1.0000
   0.400   0.5296   0.00902   0.00353  -0.1062   0.7226   1.0000
   0.500   0.5397   0.00907   0.00352  -0.1060   0.7172   1.0000
   0.600   0.5500   0.00911   0.00351  -0.1058   0.7118   1.0000
   0.700   0.5603   0.00916   0.00351  -0.1056   0.7066   1.0000
   0.800   0.5705   0.00920   0.00351  -0.1053   0.7012   1.0000
   0.900   0.5810   0.00926   0.00350  -0.1051   0.6963   1.0000
   1.000   0.5911   0.00931   0.00352  -0.1049   0.6907   1.0000
   1.100   0.6017   0.00937   0.00351  -0.1047   0.6862   1.0000
   1.200   0.6118   0.00942   0.00354  -0.1045   0.6805   1.0000
   1.300   0.6224   0.00948   0.00354  -0.1043   0.6760   1.0000
   1.400   0.6326   0.00953   0.00357  -0.1041   0.6705   1.0000
   1.500   0.6431   0.00960   0.00358  -0.1039   0.6659   1.0000
   1.600   0.6534   0.00966   0.00361  -0.1038   0.6610   1.0000
   1.700   0.6638   0.00972   0.00363  -0.1036   0.6561   1.0000
   1.800   0.6744   0.00979   0.00365  -0.1034   0.6519   1.0000
   1.900   0.6847   0.00985   0.00369  -0.1032   0.6467   1.0000
   2.000   0.6953   0.00992   0.00371  -0.1031   0.6426   1.0000
   2.100   0.7056   0.00999   0.00376  -0.1029   0.6378   1.0000
   2.200   0.7161   0.01006   0.00379  -0.1027   0.6334   1.0000
   2.300   0.7268   0.01014   0.00382  -0.1026   0.6296   1.0000
   2.400   0.7370   0.01020   0.00388  -0.1024   0.6248   1.0000
   2.500   0.7476   0.01028   0.00392  -0.1023   0.6208   1.0000
   2.600   0.7582   0.01035   0.00396  -0.1022   0.6167   1.0000
   2.700   0.7686   0.01042   0.00402  -0.1020   0.6124   1.0000
   2.800   0.7793   0.01050   0.00406  -0.1019   0.6088   1.0000
   2.900   0.7897   0.01058   0.00412  -0.1017   0.6046   1.0000
   3.000   0.8001   0.01065   0.00418  -0.1016   0.6005   1.0000
   3.100   0.8109   0.01074   0.00422  -0.1015   0.5972   1.0000
   3.200   0.8212   0.01081   0.00429  -0.1013   0.5931   1.0000
   3.300   0.8317   0.01088   0.00435  -0.1012   0.5892   1.0000
   3.400   0.8425   0.01097   0.00440  -0.1011   0.5860   1.0000
   3.500   0.8528   0.01105   0.00448  -0.1009   0.5820   1.0000
   3.600   0.8632   0.01113   0.00455  -0.1008   0.5782   1.0000
   3.700   0.8740   0.01122   0.00460  -0.1007   0.5750   1.0000
   3.800   0.8844   0.01130   0.00468  -0.1006   0.5713   1.0000
   3.900   0.8948   0.01137   0.00476  -0.1004   0.5674   1.0000
   4.000   0.9054   0.01146   0.00481  -0.1003   0.5642   1.0000
   4.100   0.9159   0.01155   0.00490  -0.1002   0.5608   1.0000
   4.200   0.9262   0.01163   0.00498  -0.1000   0.5569   1.0000
   4.300   0.9367   0.01172   0.00505  -0.0999   0.5536   1.0000
   4.400   0.9473   0.01182   0.00512  -0.0998   0.5504   1.0000
   4.500   0.9575   0.01189   0.00522  -0.0996   0.5465   1.0000
   4.600   0.9679   0.01198   0.00529  -0.0994   0.5430   1.0000
   4.700   0.9787   0.01208   0.00536  -0.0994   0.5400   1.0000
   4.800   0.9886   0.01215   0.00547  -0.0991   0.5360   1.0000
   4.900   0.9989   0.01224   0.00555  -0.0990   0.5324   1.0000
   5.000   1.0096   0.01235   0.00562  -0.0989   0.5293   1.0000
   5.100   1.0195   0.01242   0.00573  -0.0987   0.5253   1.0000
   5.200   1.0296   0.01250   0.00582  -0.0985   0.5215   1.0000
   5.300   1.0402   0.01261   0.00589  -0.0983   0.5182   1.0000
   5.400   1.0500   0.01269   0.00599  -0.0981   0.5141   1.0000
   5.500   1.0600   0.01277   0.00608  -0.0979   0.5101   1.0000
   5.600   1.0704   0.01288   0.00615  -0.0977   0.5067   1.0000
   5.700   1.0799   0.01295   0.00627  -0.0974   0.5021   1.0000
   5.800   1.0898   0.01303   0.00635  -0.0972   0.4978   1.0000
   5.900   1.0997   0.01313   0.00643  -0.0969   0.4938   1.0000
   6.000   1.1091   0.01320   0.00653  -0.0966   0.4888   1.0000
   6.100   1.1189   0.01330   0.00659  -0.0964   0.4845   1.0000
   6.200   1.1281   0.01337   0.00670  -0.0960   0.4794   1.0000
   6.300   1.1376   0.01346   0.00678  -0.0957   0.4746   1.0000
   6.400   1.1470   0.01355   0.00687  -0.0954   0.4698   1.0000
   6.500   1.1562   0.01363   0.00697  -0.0950   0.4647   1.0000
   6.600   1.1657   0.01374   0.00705  -0.0947   0.4601   1.0000
   6.700   1.1748   0.01381   0.00716  -0.0943   0.4548   1.0000
   6.900   1.1931   0.01400   0.00737  -0.0936   0.4448   1.0000
   7.000   1.2022   0.01411   0.00746  -0.0932   0.4400   1.0000
   7.100   1.2112   0.01419   0.00758  -0.0928   0.4345   1.0000
   7.200   1.2201   0.01430   0.00767  -0.0924   0.4294   1.0000
   7.300   1.2289   0.01439   0.00779  -0.0920   0.4238   1.0000
   7.400   1.2376   0.01450   0.00790  -0.0916   0.4183   1.0000
   7.500   1.2463   0.01459   0.00802  -0.0911   0.4123   1.0000
   7.600   1.2548   0.01471   0.00813  -0.0907   0.4067   1.0000
   7.700   1.2633   0.01481   0.00826  -0.0902   0.4001   1.0000
   7.800   1.2715   0.01493   0.00838  -0.0897   0.3940   1.0000
   7.900   1.2797   0.01504   0.00850  -0.0892   0.3869   1.0000
   8.000   1.2877   0.01516   0.00864  -0.0886   0.3799   1.0000
   8.100   1.2953   0.01531   0.00877  -0.0880   0.3728   1.0000
   8.200   1.3031   0.01545   0.00891  -0.0875   0.3647   1.0000
   8.300   1.3105   0.01560   0.00906  -0.0868   0.3564   1.0000
   8.400   1.3176   0.01577   0.00922  -0.0862   0.3478   1.0000
   8.500   1.3244   0.01596   0.00939  -0.0854   0.3387   1.0000
   8.600   1.3308   0.01616   0.00957  -0.0847   0.3291   1.0000
   8.700   1.3369   0.01639   0.00977  -0.0838   0.3189   1.0000
   8.800   1.3427   0.01663   0.00998  -0.0830   0.3081   1.0000
   8.900   1.3481   0.01689   0.01020  -0.0821   0.2967   1.0000
   9.000   1.3531   0.01717   0.01044  -0.0811   0.2847   1.0000
   9.100   1.3575   0.01748   0.01070  -0.0801   0.2722   1.0000
   9.200   1.3607   0.01780   0.01097  -0.0788   0.2597   1.0000
   9.300   1.3632   0.01817   0.01127  -0.0774   0.2470   1.0000
   9.400   1.3658   0.01856   0.01160  -0.0761   0.2337   1.0000
   9.500   1.3680   0.01898   0.01196  -0.0748   0.2198   1.0000
   9.600   1.3697   0.01945   0.01235  -0.0734   0.2062   1.0000
   9.700   1.3712   0.01994   0.01277  -0.0721   0.1923   1.0000
   9.800   1.3725   0.02047   0.01322  -0.0707   0.1785   1.0000
   9.900   1.3732   0.02103   0.01370  -0.0694   0.1657   1.0000
  10.000   1.3740   0.02161   0.01421  -0.0680   0.1533   1.0000
  10.100   1.3748   0.02221   0.01474  -0.0667   0.1418   1.0000
  10.200   1.3754   0.02282   0.01529  -0.0654   0.1315   1.0000
  10.300   1.3760   0.02346   0.01587  -0.0642   0.1223   1.0000
  10.400   1.3766   0.02410   0.01647  -0.0630   0.1146   1.0000
  10.600   1.3781   0.02540   0.01770  -0.0607   0.1016   1.0000
  10.700   1.3789   0.02606   0.01834  -0.0596   0.0965   1.0000
  10.800   1.3795   0.02676   0.01901  -0.0585   0.0921   1.0000
  10.900   1.3807   0.02742   0.01968  -0.0575   0.0880   1.0000
  11.000   1.3815   0.02812   0.02037  -0.0565   0.0844   1.0000
  11.100   1.3818   0.02888   0.02111  -0.0555   0.0814   1.0000
  11.200   1.3837   0.02953   0.02178  -0.0547   0.0782   1.0000
  11.300   1.3837   0.03033   0.02257  -0.0538   0.0759   1.0000
  11.400   1.3843   0.03111   0.02336  -0.0529   0.0736   1.0000
  11.500   1.3863   0.03179   0.02407  -0.0522   0.0711   1.0000
  11.600   1.3868   0.03260   0.02488  -0.0514   0.0692   1.0000
  11.700   1.3852   0.03359   0.02585  -0.0505   0.0677   1.0000
  11.800   1.3876   0.03428   0.02659  -0.0499   0.0657   1.0000
  11.900   1.3891   0.03504   0.02738  -0.0493   0.0640   1.0000
  12.000   1.3898   0.03588   0.02823  -0.0487   0.0625   1.0000
  12.100   1.3887   0.03690   0.02924  -0.0479   0.0613   1.0000
  12.200   1.3889   0.03782   0.03018  -0.0473   0.0600   1.0000
  12.300   1.3908   0.03860   0.03101  -0.0468   0.0586   1.0000
  12.400   1.3920   0.03945   0.03189  -0.0463   0.0573   1.0000
  12.500   1.3927   0.04036   0.03282  -0.0458   0.0562   1.0000
  12.600   1.3921   0.04139   0.03384  -0.0453   0.0552   1.0000
  12.700   1.3900   0.04256   0.03499  -0.0446   0.0544   1.0000
  12.800   1.3924   0.04335   0.03586  -0.0442   0.0533   1.0000
  12.900   1.3938   0.04423   0.03678  -0.0438   0.0523   1.0000
  13.000   1.3949   0.04515   0.03773  -0.0435   0.0513   1.0000
  13.100   1.3956   0.04611   0.03871  -0.0431   0.0504   1.0000
  13.200   1.3957   0.04713   0.03973  -0.0427   0.0497   1.0000
  13.300   1.3947   0.04823   0.04081  -0.0422   0.0490   1.0000
  13.400   1.3950   0.04925   0.04185  -0.0418   0.0483   1.0000
  13.500   1.3967   0.05015   0.04282  -0.0415   0.0475   1.0000
  13.600   1.3980   0.05110   0.04382  -0.0412   0.0467   1.0000
  13.700   1.3992   0.05206   0.04481  -0.0409   0.0459   1.0000
  13.800   1.4002   0.05303   0.04580  -0.0406   0.0452   1.0000
  13.900   1.4010   0.05402   0.04679  -0.0403   0.0446   1.0000
  14.000   1.4016   0.05502   0.04778  -0.0400   0.0440   1.0000
  14.100   1.4020   0.05596   0.04867  -0.0394   0.0434   1.0000
  14.200   1.4035   0.05696   0.04975  -0.0393   0.0429   1.0000
  14.300   1.4049   0.05795   0.05081  -0.0391   0.0422   1.0000
  14.400   1.4063   0.05892   0.05183  -0.0388   0.0416   1.0000
  14.500   1.4077   0.05990   0.05284  -0.0386   0.0410   1.0000
  14.600   1.4092   0.06086   0.05382  -0.0384   0.0405   1.0000
  14.700   1.4107   0.06180   0.05477  -0.0382   0.0399   1.0000
  14.800   1.4125   0.06269   0.05565  -0.0379   0.0395   1.0000
  14.900   1.4148   0.06345   0.05637  -0.0375   0.0390   1.0000
  15.000   1.4170   0.06426   0.05719  -0.0370   0.0385   1.0000
  15.100   1.4179   0.06537   0.05838  -0.0369   0.0380   1.0000
  15.200   1.4190   0.06644   0.05952  -0.0368   0.0375   1.0000
  15.300   1.4201   0.06751   0.06065  -0.0367   0.0370   1.0000
  15.400   1.4214   0.06852   0.06170  -0.0366   0.0366   1.0000
  15.500   1.4230   0.06950   0.06271  -0.0364   0.0361   1.0000
  15.600   1.4248   0.07044   0.06367  -0.0363   0.0357   1.0000
  15.700   1.4271   0.07131   0.06454  -0.0361   0.0353   1.0000
  15.800   1.4301   0.07204   0.06525  -0.0358   0.0349   1.0000
  15.900   1.4361   0.07228   0.06543  -0.0350   0.0345   1.0000
  16.000   1.4370   0.07339   0.06660  -0.0349   0.0341   1.0000
  16.100   1.4365   0.07472   0.06802  -0.0349   0.0338   1.0000
  16.200   1.4366   0.07597   0.06935  -0.0350   0.0335   1.0000
  16.300   1.4370   0.07716   0.07061  -0.0349   0.0331   1.0000
  16.400   1.4376   0.07831   0.07182  -0.0349   0.0328   1.0000
  16.500   1.4382   0.07948   0.07304  -0.0350   0.0324   1.0000
  16.600   1.4391   0.08061   0.07421  -0.0350   0.0321   1.0000
  16.700   1.4403   0.08168   0.07532  -0.0350   0.0318   1.0000
  16.800   1.4419   0.08268   0.07633  -0.0349   0.0315   1.0000
  16.900   1.4446   0.08351   0.07716  -0.0348   0.0312   1.0000
  17.000   1.4493   0.08401   0.07763  -0.0344   0.0308   1.0000
  17.100   1.4572   0.08402   0.07757  -0.0335   0.0305   1.0000
  17.200   1.4544   0.08572   0.07939  -0.0338   0.0303   1.0000
  17.300   1.4518   0.08741   0.08119  -0.0342   0.0301   1.0000
  17.400   1.4494   0.08908   0.08295  -0.0345   0.0299   1.0000
  17.500   1.4471   0.09073   0.08471  -0.0348   0.0297   1.0000
  17.600   1.4452   0.09234   0.08640  -0.0352   0.0295   1.0000
  17.700   1.4435   0.09392   0.08806  -0.0355   0.0293   1.0000
  17.800   1.4422   0.09546   0.08967  -0.0359   0.0290   1.0000
  17.900   1.4411   0.09696   0.09123  -0.0362   0.0288   1.0000
  18.000   1.4404   0.09839   0.09271  -0.0366   0.0286   1.0000
  18.100   1.4402   0.09974   0.09411  -0.0369   0.0284   1.0000
  18.200   1.4404   0.10102   0.09542  -0.0372   0.0282   1.0000
  18.300   1.4403   0.10235   0.09679  -0.0375   0.0279   1.0000
  18.400   1.4409   0.10358   0.09804  -0.0378   0.0277   1.0000
  18.500   1.4421   0.10466   0.09915  -0.0380   0.0275   1.0000
  18.600   1.4451   0.10546   0.09993  -0.0380   0.0273   1.0000
  18.700   1.4536   0.10525   0.09966  -0.0370   0.0270   1.0000
  18.800   1.4480   0.10755   0.10206  -0.0380   0.0269   1.0000
  18.900   1.4422   0.10991   0.10454  -0.0391   0.0269   1.0000
  19.000   1.4361   0.11237   0.10711  -0.0403   0.0268   1.0000
  19.100   1.4304   0.11477   0.10962  -0.0414   0.0267   1.0000
  19.200   1.4246   0.11723   0.11218  -0.0427   0.0266   1.0000
  19.300   1.4184   0.11980   0.11486  -0.0440   0.0266   1.0000
  19.400   1.4123   0.12236   0.11752  -0.0454   0.0265   1.0000
  19.500   1.4062   0.12496   0.12022  -0.0468   0.0264   1.0000
  19.600   1.3995   0.12773   0.12310  -0.0484   0.0264   1.0000
  19.700   1.3932   0.13046   0.12592  -0.0500   0.0263   1.0000
  19.800   1.3862   0.13336   0.12892  -0.0518   0.0263   1.0000
  19.900   1.3793   0.13630   0.13195  -0.0537   0.0262   1.0000
  20.000   1.3720   0.13935   0.13510  -0.0557   0.0262   1.0000
