  
       XFOIL         Version 6.99
  
 Calculated polar for: NACA 4412                                       
  
 1 1 Reynolds number fixed          Mach number fixed         
  
 xtrf =   1.000 (top)        1.000 (bottom)  
 Mach =   0.000     Re =     0.030 e 6     Ncrit =   9.000
  
   alpha    CL        CD       CDp       CM     Top_Xtr  Bot_Xtr
  ------ -------- --------- --------- -------- -------- --------
 -10.000  -0.3106   0.12826   0.11869  -0.0231   1.0000   0.3654
  -9.900  -0.3130   0.12787   0.11833  -0.0228   1.0000   0.3713
  -9.800  -0.3083   0.12618   0.11666  -0.0226   1.0000   0.3760
  -9.700  -0.3082   0.12541   0.11592  -0.0222   1.0000   0.3826
  -9.600  -0.3053   0.12401   0.11455  -0.0220   1.0000   0.3873
  -9.500  -0.3046   0.12316   0.11372  -0.0215   1.0000   0.3943
  -9.400  -0.3010   0.12166   0.11225  -0.0213   1.0000   0.3995
  -9.300  -0.3020   0.12104   0.11166  -0.0208   1.0000   0.4064
  -9.200  -0.2961   0.11926   0.10989  -0.0205   1.0000   0.4124
  -9.100  -0.3014   0.11920   0.10988  -0.0198   1.0000   0.4190
  -9.000  -0.2918   0.11699   0.10767  -0.0196   1.0000   0.4268
  -8.900  -0.3009   0.11732   0.10807  -0.0187   1.0000   0.4320
  -8.800  -0.2917   0.11528   0.10601  -0.0184   1.0000   0.4415
  -8.700  -0.2860   0.11362   0.10437  -0.0181   1.0000   0.4492
  -8.600  -0.2964   0.11414   0.10496  -0.0168   1.0000   0.4554
  -8.500  -0.2869   0.11206   0.10288  -0.0166   1.0000   0.4657
  -8.400  -0.2800   0.11031   0.10114  -0.0162   1.0000   0.4746
  -8.300  -0.2794   0.10932   0.10018  -0.0155   1.0000   0.4827
  -8.200  -0.2866   0.10944   0.10036  -0.0142   1.0000   0.4909
  -8.100  -0.2798   0.10776   0.09869  -0.0137   1.0000   0.5020
  -8.000  -0.2742   0.10625   0.09719  -0.0131   1.0000   0.5130
  -7.900  -0.2696   0.10488   0.09584  -0.0125   1.0000   0.5241
  -7.800  -0.2659   0.10362   0.09461  -0.0118   1.0000   0.5357
  -7.700  -0.2630   0.10247   0.09348  -0.0110   1.0000   0.5478
  -7.600  -0.2607   0.10141   0.09243  -0.0101   1.0000   0.5604
  -7.500  -0.2592   0.10045   0.09150  -0.0091   1.0000   0.5732
  -7.400  -0.2591   0.09966   0.09074  -0.0079   1.0000   0.5860
  -7.300  -0.2437   0.09714   0.08820  -0.0082   1.0000   0.6035
  -7.200  -0.2423   0.09629   0.08738  -0.0070   1.0000   0.6201
  -7.100  -0.2316   0.09435   0.08543  -0.0068   1.0000   0.6385
  -7.000  -0.2325   0.09381   0.08493  -0.0052   1.0000   0.6569
  -6.900  -0.2204   0.09184   0.08295  -0.0052   1.0000   0.6798
  -6.800  -0.2111   0.09022   0.08131  -0.0048   1.0000   0.7039
  -6.700  -0.1900   0.08737   0.07843  -0.0060   1.0000   0.7345
  -6.600  -0.1721   0.08499   0.07601  -0.0068   1.0000   0.7693
  -6.500  -0.1541   0.08279   0.07376  -0.0077   1.0000   0.8113
  -6.400  -0.0974   0.07682   0.06759  -0.0158   1.0000   0.8869
  -6.300   0.0277   0.06452   0.05479  -0.0429   1.0000   1.0000
  -6.200   0.0298   0.06377   0.05406  -0.0428   1.0000   1.0000
  -6.100   0.0318   0.06304   0.05335  -0.0428   1.0000   1.0000
  -6.000   0.0337   0.06231   0.05265  -0.0427   1.0000   1.0000
  -5.900   0.0355   0.06161   0.05196  -0.0426   1.0000   1.0000
  -5.800   0.0372   0.06091   0.05129  -0.0425   1.0000   1.0000
  -5.700   0.0388   0.06023   0.05063  -0.0424   1.0000   1.0000
  -5.600   0.0404   0.05956   0.04998  -0.0423   1.0000   1.0000
  -5.500   0.0270   0.06013   0.05064  -0.0385   1.0000   0.9928
  -5.400  -0.0116   0.06272   0.05343  -0.0288   1.0000   0.9678
  -5.300  -0.0488   0.06509   0.05599  -0.0201   1.0000   0.9401
  -5.200  -0.0825   0.06688   0.05796  -0.0128   1.0000   0.9077
  -5.100  -0.1172   0.06867   0.05993  -0.0061   1.0000   0.8730
  -5.000  -0.1514   0.07030   0.06173  -0.0002   1.0000   0.8374
  -4.900  -0.1860   0.07181   0.06341   0.0051   1.0000   0.8012
  -4.800  -0.2207   0.07318   0.06495   0.0097   1.0000   0.7652
  -4.700  -0.2552   0.07435   0.06630   0.0137   1.0000   0.7294
  -4.500  -0.3202   0.07592   0.06818   0.0198   1.0000   0.6599
  -4.400  -0.3518   0.07645   0.06885   0.0224   1.0000   0.6276
  -4.200  -0.4159   0.06941   0.06169  -0.0129   1.0000   0.3450
  -4.100  -0.4038   0.06622   0.05830  -0.0194   1.0000   0.3199
  -4.000  -0.3891   0.06292   0.05470  -0.0264   1.0000   0.3011
  -3.900  -0.3816   0.06141   0.05314  -0.0272   1.0000   0.2978
  -3.800  -0.3675   0.05885   0.05028  -0.0319   1.0000   0.2894
  -3.700  -0.3585   0.05740   0.04875  -0.0330   1.0000   0.2881
  -3.600  -0.3486   0.05590   0.04713  -0.0344   1.0000   0.2870
  -3.500  -0.3379   0.05440   0.04549  -0.0360   1.0000   0.2862
  -3.400  -0.3267   0.05296   0.04388  -0.0376   1.0000   0.2861
  -3.300  -0.3151   0.05158   0.04234  -0.0392   1.0000   0.2869
  -3.200  -0.3029   0.05024   0.04079  -0.0409   1.0000   0.2882
  -3.100  -0.2898   0.04890   0.03920  -0.0428   1.0000   0.2898
  -3.000  -0.2810   0.04803   0.03829  -0.0430   1.0000   0.2929
  -2.900  -0.2712   0.04717   0.03734  -0.0435   1.0000   0.2966
  -2.800  -0.2586   0.04612   0.03607  -0.0449   1.0000   0.3003
  -2.700  -0.2478   0.04525   0.03508  -0.0456   1.0000   0.3043
  -2.600  -0.2383   0.04456   0.03431  -0.0459   1.0000   0.3095
  -2.500  -0.2257   0.04371   0.03322  -0.0471   1.0000   0.3149
  -2.400  -0.2170   0.04313   0.03263  -0.0471   1.0000   0.3204
  -2.300  -0.2053   0.04245   0.03175  -0.0480   1.0000   0.3273
  -2.200  -0.1959   0.04192   0.03115  -0.0482   1.0000   0.3342
  -2.100  -0.1857   0.04137   0.03051  -0.0486   1.0000   0.3415
  -2.000  -0.1747   0.04086   0.02985  -0.0491   1.0000   0.3504
  -1.900  -0.1651   0.04042   0.02934  -0.0493   1.0000   0.3592
  -1.800  -0.1554   0.04003   0.02888  -0.0495   1.0000   0.3688
  -1.700  -0.1452   0.03966   0.02843  -0.0497   1.0000   0.3796
  -1.600  -0.1349   0.03931   0.02800  -0.0500   1.0000   0.3911
  -1.500  -0.1248   0.03899   0.02762  -0.0502   1.0000   0.4042
  -1.400  -0.1143   0.03869   0.02725  -0.0505   1.0000   0.4185
  -1.300  -0.1047   0.03842   0.02697  -0.0505   1.0000   0.4336
  -1.200  -0.0953   0.03816   0.02674  -0.0505   1.0000   0.4502
  -1.100  -0.0853   0.03792   0.02651  -0.0506   1.0000   0.4693
  -1.000  -0.0755   0.03769   0.02630  -0.0507   1.0000   0.4913
  -0.900  -0.0662   0.03744   0.02616  -0.0505   1.0000   0.5154
  -0.800  -0.0574   0.03718   0.02605  -0.0502   1.0000   0.5430
  -0.700  -0.0484   0.03688   0.02594  -0.0498   1.0000   0.5775
  -0.600  -0.0400   0.03650   0.02584  -0.0492   1.0000   0.6218
  -0.500  -0.0339   0.03595   0.02575  -0.0477   1.0000   0.6813
  -0.400  -0.0338   0.03511   0.02558  -0.0444   1.0000   0.7773
  -0.300  -0.0426   0.03431   0.02519  -0.0414   1.0000   0.9590
  -0.200  -0.0135   0.03469   0.02444  -0.0478   1.0000   1.0000
  -0.100  -0.0034   0.03508   0.02449  -0.0486   1.0000   1.0000
   0.000   0.0055   0.03548   0.02463  -0.0490   1.0000   1.0000
   0.100   0.0137   0.03588   0.02482  -0.0492   1.0000   1.0000
   0.200   0.0217   0.03628   0.02504  -0.0494   1.0000   1.0000
   0.300   0.0294   0.03669   0.02528  -0.0496   1.0000   1.0000
   0.400   0.0370   0.03711   0.02555  -0.0498   1.0000   1.0000
   0.500   0.0445   0.03753   0.02583  -0.0500   1.0000   1.0000
   0.600   0.0519   0.03796   0.02613  -0.0501   1.0000   1.0000
   0.700   0.0592   0.03840   0.02645  -0.0502   1.0000   1.0000
   0.800   0.0665   0.03884   0.02678  -0.0504   1.0000   1.0000
   0.900   0.0737   0.03929   0.02712  -0.0505   1.0000   1.0000
   1.000   0.0809   0.03975   0.02748  -0.0506   1.0000   1.0000
   1.100   0.0880   0.04022   0.02785  -0.0508   1.0000   1.0000
   1.200   0.0950   0.04069   0.02823  -0.0509   1.0000   1.0000
   1.300   0.1020   0.04117   0.02862  -0.0510   1.0000   1.0000
   1.400   0.1090   0.04166   0.02902  -0.0512   1.0000   1.0000
   1.500   0.1159   0.04215   0.02944  -0.0513   1.0000   1.0000
   1.600   0.1229   0.04265   0.02986  -0.0514   1.0000   1.0000
   1.700   0.1297   0.04316   0.03030  -0.0515   1.0000   1.0000
   1.800   0.1365   0.04367   0.03074  -0.0517   1.0000   1.0000
   1.900   0.1433   0.04420   0.03120  -0.0518   1.0000   1.0000
   2.000   0.1501   0.04473   0.03167  -0.0519   1.0000   1.0000
   2.100   0.1568   0.04526   0.03214  -0.0521   1.0000   1.0000
   2.200   0.1635   0.04581   0.03263  -0.0522   1.0000   1.0000
   2.300   0.1702   0.04636   0.03313  -0.0523   1.0000   1.0000
   2.400   0.1768   0.04692   0.03363  -0.0525   1.0000   1.0000
   2.500   0.1833   0.04748   0.03415  -0.0526   1.0000   1.0000
   2.600   0.1899   0.04805   0.03468  -0.0528   1.0000   1.0000
   2.700   0.1964   0.04864   0.03521  -0.0529   1.0000   1.0000
   2.800   0.2029   0.04922   0.03576  -0.0530   1.0000   1.0000
   2.900   0.2093   0.04982   0.03632  -0.0532   1.0000   1.0000
   3.000   0.2157   0.05042   0.03688  -0.0533   1.0000   1.0000
   3.100   0.2221   0.05104   0.03746  -0.0535   1.0000   1.0000
   3.200   0.2284   0.05166   0.03804  -0.0537   1.0000   1.0000
   3.300   0.2347   0.05228   0.03864  -0.0538   1.0000   1.0000
   3.400   0.2409   0.05292   0.03925  -0.0540   1.0000   1.0000
   3.500   0.2471   0.05356   0.03986  -0.0541   1.0000   1.0000
   3.600   0.2533   0.05422   0.04049  -0.0543   1.0000   1.0000
   3.700   0.2594   0.05487   0.04113  -0.0545   1.0000   1.0000
   3.800   0.2655   0.05554   0.04178  -0.0546   1.0000   1.0000
   3.900   0.2716   0.05622   0.04243  -0.0548   1.0000   1.0000
   4.000   0.2776   0.05691   0.04310  -0.0550   1.0000   1.0000
   4.100   0.2836   0.05760   0.04378  -0.0551   1.0000   1.0000
   4.200   0.2895   0.05830   0.04447  -0.0553   1.0000   1.0000
   4.300   0.2954   0.05902   0.04517  -0.0555   1.0000   1.0000
   4.400   0.3013   0.05974   0.04588  -0.0557   1.0000   1.0000
   4.500   0.3071   0.06047   0.04660  -0.0559   1.0000   1.0000
   4.600   0.3129   0.06121   0.04733  -0.0561   1.0000   1.0000
   4.700   0.3187   0.06195   0.04807  -0.0563   1.0000   1.0000
   4.800   0.3244   0.06271   0.04882  -0.0565   1.0000   1.0000
   4.900   0.3300   0.06348   0.04958  -0.0567   1.0000   1.0000
   5.000   0.3356   0.06425   0.05036  -0.0569   1.0000   1.0000
   5.100   0.3412   0.06504   0.05114  -0.0571   1.0000   1.0000
   5.200   0.3468   0.06583   0.05194  -0.0573   1.0000   1.0000
   5.300   0.3523   0.06663   0.05274  -0.0575   1.0000   1.0000
   5.400   0.3577   0.06745   0.05356  -0.0577   1.0000   1.0000
   5.500   0.3632   0.06827   0.05439  -0.0580   1.0000   1.0000
   5.600   0.3685   0.06911   0.05523  -0.0582   1.0000   1.0000
   5.700   0.3739   0.06995   0.05608  -0.0584   1.0000   1.0000
   5.800   0.3792   0.07080   0.05694  -0.0586   1.0000   1.0000
   5.900   0.3845   0.07167   0.05782  -0.0589   1.0000   1.0000
   6.000   0.3897   0.07254   0.05870  -0.0591   1.0000   1.0000
   6.100   0.3949   0.07342   0.05960  -0.0594   1.0000   1.0000
   6.200   0.4000   0.07432   0.06051  -0.0596   1.0000   1.0000
   6.300   0.4051   0.07522   0.06143  -0.0599   1.0000   1.0000
   6.400   0.4101   0.07614   0.06236  -0.0601   1.0000   1.0000
   6.500   0.4152   0.07706   0.06330  -0.0604   1.0000   1.0000
   6.600   0.4201   0.07800   0.06425  -0.0607   1.0000   1.0000
   6.700   0.4251   0.07894   0.06522  -0.0610   1.0000   1.0000
   6.800   0.4299   0.07990   0.06620  -0.0612   1.0000   1.0000
   6.900   0.4348   0.08087   0.06719  -0.0615   1.0000   1.0000
   7.000   0.4434   0.08215   0.06851  -0.0626   0.9977   1.0000
   7.100   0.4576   0.08394   0.07034  -0.0649   0.9920   1.0000
   7.200   0.4703   0.08565   0.07208  -0.0669   0.9862   1.0000
   7.300   0.4845   0.08753   0.07400  -0.0691   0.9803   1.0000
   7.400   0.4971   0.08922   0.07575  -0.0710   0.9732   1.0000
   7.500   0.5041   0.09035   0.07692  -0.0718   0.9658   1.0000
   7.600   0.5121   0.09165   0.07827  -0.0728   0.9592   1.0000
   7.700   0.5270   0.09373   0.08038  -0.0750   0.9529   1.0000
   7.800   0.5335   0.09479   0.08150  -0.0757   0.9448   1.0000
   7.900   0.5387   0.09583   0.08259  -0.0761   0.9379   1.0000
   8.000   0.5521   0.09782   0.08463  -0.0781   0.9315   1.0000
   8.100   0.5590   0.09896   0.08582  -0.0787   0.9233   1.0000
   8.200   0.5630   0.09992   0.08682  -0.0789   0.9163   1.0000
   8.300   0.5762   0.10195   0.08890  -0.0807   0.9098   1.0000
   8.400   0.5822   0.10303   0.09003  -0.0812   0.9014   1.0000
   8.500   0.5857   0.10398   0.09103  -0.0813   0.8943   1.0000
   8.600   0.5986   0.10603   0.09313  -0.0830   0.8877   1.0000
   8.700   0.6042   0.10710   0.09426  -0.0834   0.8792   1.0000
   8.800   0.6070   0.10802   0.09522  -0.0833   0.8720   1.0000
   8.900   0.6189   0.11000   0.09725  -0.0848   0.8652   1.0000
   9.000   0.6252   0.11119   0.09850  -0.0853   0.8566   1.0000
   9.100   0.6270   0.11202   0.09937  -0.0851   0.8493   1.0000
   9.200   0.6372   0.11387   0.10127  -0.0863   0.8424   1.0000
   9.300   0.6458   0.11540   0.10286  -0.0871   0.8338   1.0000
   9.400   0.6462   0.11607   0.10357  -0.0867   0.8262   1.0000
   9.500   0.6541   0.11770   0.10526  -0.0875   0.8192   1.0000
   9.600   0.6671   0.11985   0.10748  -0.0890   0.8106   1.0000
   9.700   0.6653   0.12022   0.10789  -0.0882   0.8027   1.0000
   9.800   0.6704   0.12156   0.10927  -0.0885   0.7955   1.0000
   9.900   0.6828   0.12375   0.11153  -0.0899   0.7874   1.0000
  10.000   0.6852   0.12460   0.11243  -0.0897   0.7787   1.0000
  10.100   0.6868   0.12554   0.11341  -0.0895   0.7713   1.0000
  10.200   0.6956   0.12737   0.11530  -0.0904   0.7637   1.0000
  10.300   0.7078   0.12953   0.11755  -0.0916   0.7544   1.0000
  10.400   0.7046   0.12978   0.11782  -0.0908   0.7465   1.0000
  10.500   0.7089   0.13112   0.11921  -0.0910   0.7391   1.0000
  10.600   0.7195   0.13321   0.12137  -0.0920   0.7308   1.0000
  10.700   0.7265   0.13472   0.12294  -0.0925   0.7213   1.0000
  10.800   0.7245   0.13521   0.12346  -0.0919   0.7138   1.0000
  10.900   0.7304   0.13681   0.12511  -0.0923   0.7063   1.0000
  11.000   0.7407   0.13890   0.12726  -0.0932   0.6972   1.0000
  11.100   0.7457   0.14019   0.12862  -0.0934   0.6878   1.0000
  11.200   0.7439   0.14078   0.12923  -0.0929   0.6807   1.0000
  11.300   0.7505   0.14250   0.13102  -0.0934   0.6729   1.0000
  11.400   0.7601   0.14455   0.13313  -0.0941   0.6634   1.0000
  11.500   0.7637   0.14569   0.13432  -0.0942   0.6543   1.0000
  11.600   0.7624   0.14641   0.13507  -0.0938   0.6476   1.0000
  11.700   0.7693   0.14820   0.13691  -0.0943   0.6392   1.0000
  11.800   0.7790   0.15032   0.13910  -0.0950   0.6297   1.0000
  11.900   0.7789   0.15099   0.13981  -0.0947   0.6216   1.0000
  12.000   0.7803   0.15213   0.14098  -0.0948   0.6146   1.0000
  12.100   0.7881   0.15408   0.14298  -0.0953   0.6060   1.0000
  12.200   0.7985   0.15636   0.14534  -0.0959   0.5963   1.0000
  12.300   0.7931   0.15637   0.14536  -0.0954   0.5900   1.0000
  12.400   0.7986   0.15808   0.14711  -0.0957   0.5824   1.0000
  12.500   0.8086   0.16038   0.14948  -0.0963   0.5734   1.0000
  12.600   0.8059   0.16073   0.14985  -0.0961   0.5666   1.0000
  12.700   0.8103   0.16234   0.15149  -0.0964   0.5598   1.0000
  12.800   0.8201   0.16467   0.15388  -0.0969   0.5508   1.0000
  12.900   0.8169   0.16496   0.15418  -0.0967   0.5447   1.0000
  13.000   0.8231   0.16688   0.15615  -0.0972   0.5381   1.0000
  13.100   0.8339   0.16937   0.15870  -0.0977   0.5288   1.0000
  13.200   0.8277   0.16929   0.15862  -0.0975   0.5246   1.0000
  13.300   0.8382   0.17189   0.16128  -0.0981   0.5170   1.0000
  13.500   0.8428   0.17436   0.16381  -0.0985   0.5051   1.0000
  13.600   0.8425   0.17504   0.16451  -0.0987   0.4990   1.0000
  13.700   0.8490   0.17717   0.16668  -0.0991   0.4937   1.0000
  13.800   0.8499   0.17798   0.16751  -0.0993   0.4872   1.0000
  13.900   0.8556   0.17999   0.16955  -0.0998   0.4823   1.0000
  14.000   0.8557   0.18072   0.17029  -0.1000   0.4768   1.0000
  14.100   0.8638   0.18316   0.17278  -0.1005   0.4717   1.0000
  14.200   0.8616   0.18348   0.17310  -0.1007   0.4668   1.0000
  14.300   0.8723   0.18638   0.17605  -0.1012   0.4609   1.0000
  14.400   0.8684   0.18642   0.17609  -0.1015   0.4575   1.0000
  14.500   0.8811   0.18961   0.17935  -0.1020   0.4505   1.0000
  14.600   0.8770   0.18968   0.17940  -0.1024   0.4481   1.0000
  14.700   0.8793   0.19072   0.18047  -0.1027   0.4425   1.0000
  14.800   0.8876   0.19334   0.18313  -0.1032   0.4384   1.0000
  14.900   0.8845   0.19341   0.18320  -0.1036   0.4349   1.0000
  15.000   0.8945   0.19608   0.18593  -0.1040   0.4288   1.0000
  15.100   0.8941   0.19689   0.18673  -0.1045   0.4263   1.0000
  15.200   0.8943   0.19749   0.18734  -0.1049   0.4217   1.0000
  15.300   0.9070   0.20109   0.19099  -0.1053   0.4168   1.0000
  15.400   0.9024   0.20077   0.19066  -0.1059   0.4145   1.0000
  15.500   0.9046   0.20171   0.19162  -0.1063   0.4097   1.0000
  15.600   0.9151   0.20492   0.19487  -0.1067   0.4055   1.0000
  15.700   0.9114   0.20467   0.19460  -0.1073   0.4028   1.0000
  15.800   0.9147   0.20588   0.19584  -0.1078   0.3983   1.0000
  15.900   0.9248   0.20909   0.19909  -0.1082   0.3945   1.0000
  16.000   0.9212   0.20875   0.19874  -0.1089   0.3919   1.0000
  16.100   0.9247   0.20997   0.19998  -0.1093   0.3872   1.0000
  16.200   0.9348   0.21323   0.20328  -0.1097   0.3837   1.0000
  16.300   0.9313   0.21284   0.20288  -0.1104   0.3813   1.0000
  16.400   0.9340   0.21387   0.20392  -0.1109   0.3770   1.0000
  16.500   0.9458   0.21759   0.20769  -0.1112   0.3731   1.0000
  16.600   0.9419   0.21704   0.20712  -0.1120   0.3710   1.0000
  16.700   0.9435   0.21775   0.20785  -0.1125   0.3669   1.0000
  16.800   0.9536   0.22093   0.21108  -0.1128   0.3630   1.0000
  16.900   0.9533   0.22143   0.21156  -0.1136   0.3610   1.0000
  17.000   0.9531   0.22168   0.21181  -0.1143   0.3575   1.0000
  17.100   0.9599   0.22379   0.21396  -0.1146   0.3534   1.0000
  17.200   0.9654   0.22600   0.21619  -0.1151   0.3510   1.0000
  17.300   0.9635   0.22574   0.21592  -0.1160   0.3481   1.0000
  17.400   0.9675   0.22708   0.21728  -0.1165   0.3442   1.0000
  17.500   0.9787   0.23095   0.22118  -0.1166   0.3409   1.0000
  17.600   0.9754   0.23023   0.22045  -0.1177   0.3391   1.0000
  17.700   0.9764   0.23070   0.22093  -0.1184   0.3355   1.0000
  17.800   0.9840   0.23314   0.22341  -0.1186   0.3316   1.0000
  17.900   0.9883   0.23503   0.22530  -0.1192   0.3296   1.0000
  18.000   0.9869   0.23474   0.22501  -0.1202   0.3269   1.0000
  18.100   0.9905   0.23596   0.22624  -0.1207   0.3232   1.0000
  18.200   1.0009   0.23963   0.22997  -0.1208   0.3199   1.0000
  18.300   0.9996   0.23949   0.22980  -0.1218   0.3183   1.0000
  18.400   0.9997   0.23960   0.22991  -0.1227   0.3151   1.0000
  18.500   1.0051   0.24135   0.23169  -0.1231   0.3114   1.0000
  18.600   1.0142   0.24485   0.23522  -0.1233   0.3088   1.0000
  18.700   1.0115   0.24404   0.23439  -0.1245   0.3070   1.0000
  18.800   1.0131   0.24454   0.23490  -0.1253   0.3036   1.0000
  18.900   1.0192   0.24661   0.23700  -0.1256   0.3003   1.0000
  19.000   1.0264   0.24957   0.23998  -0.1260   0.2981   1.0000
  19.100   1.0244   0.24882   0.23922  -0.1272   0.2960   1.0000
  19.200   1.0264   0.24948   0.23988  -0.1279   0.2927   1.0000
  19.300   1.0332   0.25180   0.24224  -0.1282   0.2894   1.0000
  19.400   1.0393   0.25444   0.24488  -0.1287   0.2875   1.0000
  19.500   1.0376   0.25370   0.24414  -0.1299   0.2855   1.0000
  19.600   1.0396   0.25434   0.24479  -0.1307   0.2822   1.0000
  19.700   1.0458   0.25648   0.24696  -0.1310   0.2791   1.0000
  19.800   1.0530   0.25959   0.25009  -0.1313   0.2771   1.0000
  19.900   1.0511   0.25872   0.24920  -0.1326   0.2753   1.0000
  20.000   1.0528   0.25915   0.24964  -0.1335   0.2722   1.0000
