  
       XFOIL         Version 6.99
  
 Calculated polar for: NACA 4412                                       
  
 1 1 Reynolds number fixed          Mach number fixed         
  
 xtrf =   1.000 (top)        1.000 (bottom)  
 Mach =   0.000     Re =     0.040 e 6     Ncrit =   9.000
  
   alpha    CL        CD       CDp       CM     Top_Xtr  Bot_Xtr
  ------ -------- --------- --------- -------- -------- --------
 -10.000  -0.3182   0.12546   0.11719  -0.0298   1.0000   0.2592
  -9.900  -0.3178   0.12458   0.11633  -0.0297   1.0000   0.2633
  -9.800  -0.3256   0.12472   0.11653  -0.0298   1.0000   0.2659
  -9.700  -0.3214   0.12297   0.11480  -0.0296   1.0000   0.2683
  -9.600  -0.3135   0.12115   0.11297  -0.0291   1.0000   0.2729
  -9.500  -0.3180   0.12085   0.11271  -0.0290   1.0000   0.2767
  -9.400  -0.3292   0.12129   0.11322  -0.0290   1.0000   0.2784
  -9.300  -0.3120   0.11806   0.10996  -0.0285   1.0000   0.2832
  -9.200  -0.3135   0.11739   0.10933  -0.0281   1.0000   0.2876
  -9.100  -0.3245   0.11775   0.10976  -0.0280   1.0000   0.2900
  -9.000  -0.3123   0.11515   0.10715  -0.0275   1.0000   0.2938
  -8.900  -0.3110   0.11416   0.10619  -0.0271   1.0000   0.2985
  -8.800  -0.3217   0.11444   0.10654  -0.0267   1.0000   0.3015
  -8.700  -0.3130   0.11228   0.10438  -0.0263   1.0000   0.3051
  -8.600  -0.3108   0.11121   0.10333  -0.0258   1.0000   0.3103
  -8.500  -0.3222   0.11151   0.10371  -0.0252   1.0000   0.3134
  -8.400  -0.3114   0.10922   0.10141  -0.0248   1.0000   0.3179
  -8.300  -0.3134   0.10858   0.10081  -0.0241   1.0000   0.3232
  -8.200  -0.3274   0.10907   0.10139  -0.0233   1.0000   0.3256
  -8.100  -0.3108   0.10632   0.09860  -0.0229   1.0000   0.3321
  -8.000  -0.3207   0.10639   0.09875  -0.0220   1.0000   0.3364
  -7.900  -0.3155   0.10475   0.09712  -0.0214   1.0000   0.3406
  -7.800  -0.3161   0.10396   0.09636  -0.0206   1.0000   0.3465
  -7.700  -0.3321   0.10454   0.09704  -0.0193   1.0000   0.3491
  -7.600  -0.3153   0.10190   0.09437  -0.0190   1.0000   0.3562
  -7.500  -0.3287   0.10223   0.09478  -0.0177   1.0000   0.3603
  -7.400  -0.3180   0.10017   0.09272  -0.0172   1.0000   0.3662
  -7.300  -0.3278   0.10018   0.09280  -0.0158   1.0000   0.3714
  -7.200  -0.3219   0.09858   0.09121  -0.0152   1.0000   0.3770
  -7.100  -0.3300   0.09843   0.09113  -0.0137   1.0000   0.3828
  -6.900  -0.3347   0.09692   0.08970  -0.0113   1.0000   0.3948
  -6.700  -0.3418   0.09562   0.08848  -0.0086   1.0000   0.4070
  -6.600  -0.3320   0.09384   0.08671  -0.0081   1.0000   0.4158
  -6.500  -0.3513   0.09449   0.08746  -0.0056   1.0000   0.4194
  -6.400  -0.3409   0.09272   0.08568  -0.0050   1.0000   0.4295
  -6.200  -0.3537   0.09187   0.08494  -0.0015   1.0000   0.4427
  -6.100  -0.3462   0.09037   0.08343  -0.0008   1.0000   0.4531
  -5.900  -0.3641   0.08990   0.08309   0.0034   1.0000   0.4669
  -5.800  -0.3603   0.08873   0.08194   0.0046   1.0000   0.4785
  -5.700  -0.3583   0.08771   0.08094   0.0060   1.0000   0.4901
  -5.600  -0.3577   0.08681   0.08007   0.0076   1.0000   0.5021
  -5.500  -0.3587   0.08602   0.07932   0.0093   1.0000   0.5142
  -5.400  -0.3388   0.08377   0.07703   0.0092   1.0000   0.5334
  -5.200  -0.3467   0.08275   0.07609   0.0135   1.0000   0.5616
  -5.100  -0.3338   0.08113   0.07445   0.0143   1.0000   0.5848
  -5.000  -0.3131   0.07898   0.07226   0.0144   1.0000   0.6140
  -4.800  -0.2882   0.07616   0.06941   0.0168   1.0000   0.6805
  -4.700  -0.2136   0.07074   0.06375   0.0110   1.0000   0.7705
  -4.600  -0.1012   0.06270   0.05534  -0.0046   1.0000   0.8973
  -4.400  -0.1120   0.06206   0.05478  -0.0016   1.0000   0.8951
  -4.300  -0.1322   0.06268   0.05550   0.0026   1.0000   0.8822
  -4.200  -0.1523   0.06309   0.05602   0.0062   1.0000   0.8621
  -4.100  -0.1798   0.06408   0.05713   0.0112   1.0000   0.8455
  -4.000  -0.4171   0.06623   0.05965  -0.0133   1.0000   0.3404
  -3.900  -0.4203   0.06658   0.06011  -0.0083   1.0000   0.3661
  -3.800  -0.3497   0.05267   0.04473  -0.0406   1.0000   0.2249
  -3.700  -0.3369   0.05070   0.04249  -0.0429   1.0000   0.2225
  -3.600  -0.3254   0.04917   0.04076  -0.0444   1.0000   0.2221
  -3.500  -0.3151   0.04796   0.03940  -0.0453   1.0000   0.2228
  -3.400  -0.3047   0.04682   0.03811  -0.0462   1.0000   0.2238
  -3.300  -0.2942   0.04578   0.03692  -0.0470   1.0000   0.2255
  -3.200  -0.2830   0.04471   0.03565  -0.0479   1.0000   0.2276
  -3.100  -0.2707   0.04359   0.03427  -0.0491   1.0000   0.2298
  -3.000  -0.2599   0.04268   0.03319  -0.0499   1.0000   0.2324
  -2.900  -0.2519   0.04217   0.03268  -0.0498   1.0000   0.2360
  -2.800  -0.2411   0.04143   0.03177  -0.0504   1.0000   0.2398
  -2.700  -0.2291   0.04062   0.03070  -0.0513   1.0000   0.2437
  -2.600  -0.2214   0.04022   0.03035  -0.0511   1.0000   0.2480
  -2.500  -0.2103   0.03962   0.02954  -0.0517   1.0000   0.2532
  -2.400  -0.2011   0.03915   0.02902  -0.0519   1.0000   0.2580
  -2.300  -0.1914   0.03873   0.02850  -0.0522   1.0000   0.2639
  -2.200  -0.1820   0.03832   0.02801  -0.0524   1.0000   0.2698
  -2.100  -0.1722   0.03796   0.02753  -0.0527   1.0000   0.2764
  -2.000  -0.1634   0.03765   0.02720  -0.0528   1.0000   0.2831
  -1.900  -0.1530   0.03733   0.02673  -0.0532   1.0000   0.2912
  -1.800  -0.1446   0.03709   0.02649  -0.0531   1.0000   0.2987
  -1.700  -0.1356   0.03685   0.02623  -0.0532   1.0000   0.3073
  -1.600  -0.1261   0.03663   0.02592  -0.0534   1.0000   0.3168
  -1.500  -0.1168   0.03644   0.02567  -0.0536   1.0000   0.3271
  -1.400  -0.1078   0.03628   0.02547  -0.0537   1.0000   0.3382
  -1.300  -0.0984   0.03613   0.02530  -0.0538   1.0000   0.3501
  -1.200  -0.0891   0.03601   0.02517  -0.0539   1.0000   0.3632
  -1.100  -0.0797   0.03589   0.02507  -0.0540   1.0000   0.3774
  -1.000  -0.0698   0.03579   0.02496  -0.0542   1.0000   0.3942
  -0.900  -0.0602   0.03568   0.02491  -0.0543   1.0000   0.4120
  -0.800  -0.0503   0.03559   0.02487  -0.0545   1.0000   0.4331
  -0.700  -0.0404   0.03549   0.02488  -0.0547   1.0000   0.4571
  -0.600  -0.0305   0.03538   0.02494  -0.0548   1.0000   0.4857
  -0.500  -0.0203   0.03522   0.02501  -0.0548   1.0000   0.5224
  -0.400  -0.0100   0.03496   0.02510  -0.0547   1.0000   0.5743
  -0.300   0.0025   0.03413   0.02521  -0.0538   0.9975   0.7049
  -0.200   0.0121   0.03346   0.02472  -0.0541   0.9905   1.0000
  -0.100   0.0350   0.03412   0.02487  -0.0571   0.9850   1.0000
   0.000   0.0560   0.03479   0.02522  -0.0596   0.9797   1.0000
   0.100   0.0736   0.03537   0.02557  -0.0615   0.9744   1.0000
   0.200   0.0895   0.03591   0.02593  -0.0630   0.9692   1.0000
   0.300   0.1083   0.03654   0.02637  -0.0651   0.9642   1.0000
   0.400   0.1208   0.03701   0.02671  -0.0660   0.9590   1.0000
   0.500   0.1397   0.03764   0.02718  -0.0680   0.9541   1.0000
   0.600   0.1504   0.03808   0.02752  -0.0686   0.9490   1.0000
   0.700   0.1679   0.03867   0.02799  -0.0704   0.9442   1.0000
   0.800   0.1786   0.03913   0.02836  -0.0710   0.9394   1.0000
   0.900   0.1938   0.03968   0.02880  -0.0723   0.9345   1.0000
   1.000   0.2065   0.04019   0.02922  -0.0732   0.9298   1.0000
   1.100   0.2180   0.04068   0.02963  -0.0739   0.9252   1.0000
   1.200   0.2351   0.04128   0.03013  -0.0755   0.9206   1.0000
   1.300   0.2421   0.04170   0.03050  -0.0755   0.9160   1.0000
   1.400   0.2598   0.04230   0.03101  -0.0771   0.9115   1.0000
   1.500   0.2669   0.04275   0.03141  -0.0771   0.9070   1.0000
   1.600   0.2791   0.04327   0.03187  -0.0779   0.9026   1.0000
   1.700   0.2936   0.04383   0.03237  -0.0790   0.8982   1.0000
   1.800   0.3001   0.04429   0.03279  -0.0789   0.8938   1.0000
   1.900   0.3167   0.04488   0.03331  -0.0803   0.8896   1.0000
   2.000   0.3231   0.04537   0.03376  -0.0802   0.8854   1.0000
   2.100   0.3330   0.04589   0.03424  -0.0806   0.8811   1.0000
   2.200   0.3502   0.04649   0.03479  -0.0821   0.8769   1.0000
   2.300   0.3528   0.04697   0.03525  -0.0814   0.8728   1.0000
   2.400   0.3656   0.04753   0.03577  -0.0822   0.8686   1.0000
   2.500   0.3770   0.04810   0.03630  -0.0828   0.8645   1.0000
   2.600   0.3821   0.04862   0.03680  -0.0825   0.8605   1.0000
   2.700   0.3976   0.04922   0.03736  -0.0837   0.8564   1.0000
   2.800   0.4038   0.04978   0.03790  -0.0836   0.8525   1.0000
   2.900   0.4105   0.05034   0.03844  -0.0836   0.8486   1.0000
   3.000   0.4291   0.05095   0.03902  -0.0851   0.8443   1.0000
   3.100   0.4300   0.05152   0.03959  -0.0843   0.8407   1.0000
   3.200   0.4378   0.05211   0.04016  -0.0844   0.8368   1.0000
   3.300   0.4562   0.05273   0.04075  -0.0859   0.8325   1.0000
   3.400   0.4555   0.05333   0.04135  -0.0849   0.8290   1.0000
   3.500   0.4641   0.05395   0.04196  -0.0851   0.8252   1.0000
   3.600   0.4803   0.05458   0.04257  -0.0863   0.8210   1.0000
   3.700   0.4801   0.05522   0.04322  -0.0854   0.8175   1.0000
   3.800   0.4893   0.05585   0.04384  -0.0857   0.8136   1.0000
   3.900   0.5036   0.05650   0.04448  -0.0866   0.8095   1.0000
   4.000   0.5037   0.05718   0.04517  -0.0858   0.8062   1.0000
   4.100   0.5130   0.05784   0.04582  -0.0862   0.8023   1.0000
   4.200   0.5262   0.05850   0.04648  -0.0869   0.7981   1.0000
   4.300   0.5264   0.05922   0.04721  -0.0862   0.7949   1.0000
   4.400   0.5355   0.05990   0.04790  -0.0865   0.7910   1.0000
   4.500   0.5481   0.06058   0.04858  -0.0871   0.7867   1.0000
   4.600   0.5481   0.06134   0.04935  -0.0864   0.7837   1.0000
   4.700   0.5569   0.06205   0.05007  -0.0867   0.7798   1.0000
   4.800   0.5693   0.06275   0.05077  -0.0873   0.7755   1.0000
   4.900   0.5688   0.06355   0.05159  -0.0866   0.7725   1.0000
   5.000   0.5771   0.06429   0.05235  -0.0868   0.7686   1.0000
   5.100   0.5895   0.06501   0.05307  -0.0874   0.7642   1.0000
   5.200   0.5886   0.06586   0.05394  -0.0867   0.7614   1.0000
   5.300   0.5963   0.06663   0.05472  -0.0869   0.7575   1.0000
   5.400   0.6086   0.06736   0.05547  -0.0874   0.7530   1.0000
   5.500   0.6075   0.06826   0.05639  -0.0868   0.7503   1.0000
   5.600   0.6141   0.06907   0.05722  -0.0868   0.7466   1.0000
   5.700   0.6268   0.06981   0.05799  -0.0874   0.7416   1.0000
   5.800   0.6254   0.07076   0.05896  -0.0868   0.7392   1.0000
   5.900   0.6309   0.07162   0.05984  -0.0868   0.7356   1.0000
   6.000   0.6440   0.07236   0.06061  -0.0874   0.7303   1.0000
   6.100   0.6424   0.07336   0.06163  -0.0868   0.7280   1.0000
   6.200   0.6468   0.07428   0.06257  -0.0867   0.7248   1.0000
   6.300   0.6604   0.07503   0.06335  -0.0873   0.7191   1.0000
   6.400   0.6585   0.07607   0.06441  -0.0867   0.7168   1.0000
   6.500   0.6618   0.07705   0.06543  -0.0866   0.7139   1.0000
   6.600   0.6756   0.07780   0.06621  -0.0871   0.7077   1.0000
   6.700   0.6737   0.07890   0.06733  -0.0866   0.7057   1.0000
   6.800   0.6761   0.07993   0.06839  -0.0865   0.7029   1.0000
   6.900   0.6898   0.08068   0.06918  -0.0870   0.6963   1.0000
   7.000   0.6880   0.08184   0.07037  -0.0866   0.6946   1.0000
   7.100   0.6892   0.08294   0.07150  -0.0864   0.6922   1.0000
   7.200   0.6461   0.08719   0.07578  -0.0867   0.7451   1.0000
   7.300   0.6556   0.08855   0.07717  -0.0875   0.7434   1.0000
   7.400   0.6634   0.08922   0.07787  -0.0873   0.7327   1.0000
   7.600   0.6793   0.09125   0.07998  -0.0877   0.7202   1.0000
   7.800   0.6979   0.09197   0.08078  -0.0867   0.6899   1.0000
   7.900   0.7040   0.09330   0.08214  -0.0871   0.6884   1.0000
   8.000   0.7100   0.09470   0.08359  -0.0876   0.6873   1.0000
   8.300   0.7297   0.09734   0.08635  -0.0872   0.6631   1.0000
   8.700   0.7647   0.10002   0.08922  -0.0861   0.6209   1.0000
   8.800   0.7635   0.10161   0.09084  -0.0863   0.6210   1.0000
   8.900   0.7646   0.10317   0.09245  -0.0865   0.6206   1.0000
   9.000   0.7668   0.10475   0.09407  -0.0868   0.6200   1.0000
   9.100   0.7696   0.10637   0.09575  -0.0872   0.6195   1.0000
   9.500   0.7816   0.11090   0.10044  -0.0865   0.5951   1.0000
   9.600   0.7871   0.11286   0.10246  -0.0873   0.5965   1.0000
   9.700   0.7893   0.11358   0.10322  -0.0867   0.5862   1.0000
   9.800   0.7928   0.11536   0.10505  -0.0872   0.5855   1.0000
   9.900   0.7918   0.11557   0.10528  -0.0858   0.5702   1.0000
  10.000   0.7966   0.11774   0.10751  -0.0868   0.5731   1.0000
  10.100   0.7989   0.11867   0.10848  -0.0864   0.5645   1.0000
  10.200   0.8804   0.11052   0.10056  -0.0802   0.4845   1.0000
  10.400   0.8802   0.11296   0.10307  -0.0795   0.4705   1.0000
  10.500   0.8915   0.11320   0.10338  -0.0787   0.4601   1.0000
  10.600   0.8828   0.11524   0.10543  -0.0788   0.4557   1.0000
  10.700   0.8905   0.11577   0.10602  -0.0781   0.4461   1.0000
  10.800   0.8999   0.11613   0.10645  -0.0774   0.4361   1.0000
  11.000   0.9208   0.11641   0.10688  -0.0756   0.4154   1.0000
  11.100   0.9111   0.11877   0.10924  -0.0759   0.4110   1.0000
  11.200   0.9180   0.11926   0.10979  -0.0752   0.4016   1.0000
  11.300   0.9269   0.11952   0.11012  -0.0744   0.3918   1.0000
  11.400   0.9366   0.11961   0.11028  -0.0734   0.3818   1.0000
  11.500   0.9469   0.11954   0.11028  -0.0723   0.3717   1.0000
  11.600   0.9353   0.12244   0.11317  -0.0731   0.3680   1.0000
  11.700   0.9427   0.12279   0.11358  -0.0722   0.3588   1.0000
  11.800   0.9521   0.12284   0.11370  -0.0712   0.3492   1.0000
  11.900   0.9627   0.12264   0.11357  -0.0700   0.3394   1.0000
  12.000   0.9503   0.12591   0.11683  -0.0711   0.3364   1.0000
  12.100   0.9870   0.12146   0.11256  -0.0671   0.3194   1.0000
  12.200   0.9697   0.12581   0.11686  -0.0689   0.3180   1.0000
  12.300   0.9577   0.12923   0.12026  -0.0702   0.3155   1.0000
  12.400   0.9673   0.12921   0.12030  -0.0691   0.3067   1.0000
  12.500   0.9583   0.13226   0.12335  -0.0702   0.3040   1.0000
  12.600   0.9665   0.13247   0.12361  -0.0693   0.2958   1.0000
  12.700   0.9591   0.13535   0.12648  -0.0704   0.2931   1.0000
  12.800   0.9674   0.13564   0.12682  -0.0695   0.2855   1.0000
  12.900   0.9592   0.13874   0.12991  -0.0708   0.2836   1.0000
  13.000   0.9696   0.13867   0.12991  -0.0696   0.2755   1.0000
  13.100   0.9613   0.14191   0.13312  -0.0711   0.2743   1.0000
  13.200   0.9558   0.14469   0.13590  -0.0723   0.2726   1.0000
  13.300   0.9658   0.14479   0.13606  -0.0712   0.2651   1.0000
  13.400   0.9592   0.14782   0.13908  -0.0727   0.2642   1.0000
  13.500   0.9542   0.15060   0.14186  -0.0740   0.2633   1.0000
  13.600   0.9506   0.15320   0.14445  -0.0752   0.2623   1.0000
  13.700   0.9482   0.15563   0.14688  -0.0762   0.2614   1.0000
  13.800   0.9574   0.15612   0.14742  -0.0754   0.2547   1.0000
  13.900   0.9541   0.15876   0.15006  -0.0767   0.2545   1.0000
  14.000   0.9520   0.16130   0.15260  -0.0779   0.2546   1.0000
  14.100   0.9511   0.16376   0.15507  -0.0790   0.2549   1.0000
  14.200   0.9507   0.16616   0.15748  -0.0800   0.2553   1.0000
  14.300   0.9517   0.16851   0.15985  -0.0810   0.2558   1.0000
  14.400   0.9543   0.17084   0.16219  -0.0817   0.2563   1.0000
