  
       XFOIL         Version 6.99
  
 Calculated polar for: NACA 4412                                       
  
 1 1 Reynolds number fixed          Mach number fixed         
  
 xtrf =   1.000 (top)        1.000 (bottom)  
 Mach =   0.000     Re =     0.050 e 6     Ncrit =   9.000
  
   alpha    CL        CD       CDp       CM     Top_Xtr  Bot_Xtr
  ------ -------- --------- --------- -------- -------- --------
 -10.000  -0.3228   0.12330   0.11589  -0.0334   1.0000   0.2057
  -9.900  -0.3312   0.12335   0.11600  -0.0339   1.0000   0.2074
  -9.800  -0.3353   0.12266   0.11537  -0.0341   1.0000   0.2084
  -9.700  -0.3192   0.11973   0.11240  -0.0331   1.0000   0.2117
  -9.600  -0.3172   0.11866   0.11135  -0.0328   1.0000   0.2149
  -9.500  -0.3220   0.11826   0.11100  -0.0329   1.0000   0.2178
  -9.400  -0.3327   0.11846   0.11126  -0.0333   1.0000   0.2192
  -9.300  -0.3254   0.11632   0.10913  -0.0328   1.0000   0.2211
  -9.200  -0.3170   0.11455   0.10735  -0.0321   1.0000   0.2242
  -9.100  -0.3173   0.11369   0.10651  -0.0318   1.0000   0.2274
  -9.000  -0.3252   0.11354   0.10642  -0.0318   1.0000   0.2300
  -8.900  -0.3382   0.11385   0.10682  -0.0319   1.0000   0.2311
  -8.800  -0.3220   0.11092   0.10386  -0.0311   1.0000   0.2340
  -8.700  -0.3180   0.10969   0.10264  -0.0305   1.0000   0.2376
  -8.600  -0.3237   0.10930   0.10230  -0.0302   1.0000   0.2409
  -8.500  -0.3364   0.10952   0.10260  -0.0299   1.0000   0.2425
  -8.400  -0.3291   0.10752   0.10062  -0.0293   1.0000   0.2449
  -8.300  -0.3220   0.10604   0.09913  -0.0285   1.0000   0.2490
  -8.200  -0.3280   0.10565   0.09879  -0.0280   1.0000   0.2524
  -8.100  -0.3417   0.10589   0.09912  -0.0273   1.0000   0.2541
  -7.900  -0.3291   0.10265   0.09590  -0.0259   1.0000   0.2608
  -7.800  -0.3360   0.10232   0.09562  -0.0251   1.0000   0.2641
  -7.700  -0.3509   0.10260   0.09598  -0.0240   1.0000   0.2658
  -7.600  -0.3674   0.10295   0.09643  -0.0228   1.0000   0.2665
  -7.500  -0.3402   0.09956   0.09296  -0.0225   1.0000   0.2722
  -7.400  -0.3474   0.09922   0.09267  -0.0214   1.0000   0.2756
  -7.300  -0.3631   0.09950   0.09304  -0.0200   1.0000   0.2774
  -7.200  -0.3809   0.09989   0.09352  -0.0183   1.0000   0.2782
  -7.100  -0.3557   0.09679   0.09036  -0.0183   1.0000   0.2840
  -7.000  -0.3640   0.09651   0.09014  -0.0169   1.0000   0.2872
  -6.900  -0.3800   0.09673   0.09044  -0.0152   1.0000   0.2890
  -6.800  -0.3981   0.09702   0.09083  -0.0137   1.0000   0.2900
  -6.700  -0.3759   0.09434   0.08810  -0.0132   1.0000   0.2961
  -6.600  -0.3861   0.09414   0.08796  -0.0117   1.0000   0.2992
  -6.500  -0.4029   0.09427   0.08817  -0.0106   1.0000   0.3012
  -6.400  -0.4010   0.09293   0.08686  -0.0095   1.0000   0.3043
  -6.300  -0.3974   0.09188   0.08581  -0.0083   1.0000   0.3096
  -6.200  -0.4126   0.09184   0.08585  -0.0076   1.0000   0.3128
  -6.100  -0.4145   0.09075   0.08480  -0.0066   1.0000   0.3157
  -6.000  -0.4096   0.08963   0.08368  -0.0052   1.0000   0.3213
  -5.900  -0.4265   0.08962   0.08375  -0.0050   1.0000   0.3251
  -5.700  -0.4227   0.08741   0.08158  -0.0025   1.0000   0.3347
  -5.600  -0.4345   0.08689   0.08112  -0.0024   1.0000   0.3385
  -5.500  -0.4262   0.08556   0.07979  -0.0005   1.0000   0.3436
  -5.400  -0.4436   0.08547   0.07977  -0.0013   1.0000   0.3495
  -5.300  -0.4322   0.08387   0.07817   0.0013   1.0000   0.3540
  -5.200  -0.4470   0.08367   0.07802   0.0005   1.0000   0.3612
  -5.100  -0.4366   0.08216   0.07652   0.0032   1.0000   0.3659
  -5.000  -0.4466   0.08163   0.07603   0.0029   1.0000   0.3736
  -4.900  -0.4402   0.08049   0.07490   0.0052   1.0000   0.3799
  -4.800  -0.4440   0.07964   0.07408   0.0059   1.0000   0.3873
  -4.700  -0.4505   0.07906   0.07354   0.0060   1.0000   0.3968
  -4.600  -0.4442   0.07793   0.07240   0.0084   1.0000   0.4032
  -4.500  -0.4459   0.07705   0.07156   0.0095   1.0000   0.4121
  -4.400  -0.4486   0.07627   0.07081   0.0105   1.0000   0.4221
  -4.300  -0.4510   0.07553   0.07009   0.0115   1.0000   0.4330
  -3.900  -0.4021   0.06148   0.05539  -0.0226   1.0000   0.2938
  -3.800  -0.4028   0.06157   0.05555  -0.0202   1.0000   0.3159
  -3.700  -0.3229   0.04534   0.03725  -0.0482   1.0000   0.1824
  -3.600  -0.3116   0.04399   0.03566  -0.0493   1.0000   0.1831
  -3.500  -0.2998   0.04269   0.03408  -0.0503   1.0000   0.1839
  -3.400  -0.2885   0.04155   0.03270  -0.0512   1.0000   0.1855
  -3.300  -0.2816   0.04115   0.03237  -0.0509   1.0000   0.1880
  -3.200  -0.2724   0.04051   0.03164  -0.0512   1.0000   0.1905
  -3.100  -0.2618   0.03971   0.03064  -0.0517   1.0000   0.1931
  -3.000  -0.2493   0.03878   0.02936  -0.0527   1.0000   0.1962
  -2.900  -0.2416   0.03838   0.02902  -0.0526   1.0000   0.1992
  -2.800  -0.2328   0.03796   0.02854  -0.0527   1.0000   0.2027
  -2.700  -0.2216   0.03735   0.02767  -0.0533   1.0000   0.2069
  -2.600  -0.2131   0.03697   0.02728  -0.0533   1.0000   0.2107
  -2.500  -0.2042   0.03665   0.02690  -0.0534   1.0000   0.2150
  -2.400  -0.1933   0.03619   0.02622  -0.0539   1.0000   0.2202
  -2.300  -0.1858   0.03599   0.02610  -0.0538   1.0000   0.2248
  -2.200  -0.1751   0.03566   0.02553  -0.0542   1.0000   0.2309
  -2.100  -0.1675   0.03546   0.02542  -0.0541   1.0000   0.2359
  -2.000  -0.1469   0.03521   0.02506  -0.0562   0.9967   0.2459
  -1.900  -0.1257   0.03500   0.02475  -0.0584   0.9925   0.2571
  -1.800  -0.1036   0.03484   0.02456  -0.0607   0.9887   0.2698
  -1.700  -0.0850   0.03468   0.02437  -0.0624   0.9841   0.2826
  -1.600  -0.0643   0.03455   0.02421  -0.0645   0.9801   0.2978
  -1.500  -0.0460   0.03441   0.02401  -0.0661   0.9754   0.3143
  -1.400  -0.0267   0.03427   0.02395  -0.0678   0.9714   0.3321
  -1.300  -0.0100   0.03413   0.02381  -0.0691   0.9667   0.3515
  -1.200   0.0118   0.03400   0.02374  -0.0711   0.9631   0.3771
  -1.100   0.0257   0.03384   0.02365  -0.0719   0.9580   0.4003
  -1.000   0.0462   0.03365   0.02363  -0.0737   0.9543   0.4349
  -0.900   0.0603   0.03345   0.02362  -0.0745   0.9495   0.4702
  -0.800   0.0774   0.03314   0.02366  -0.0756   0.9456   0.5235
  -0.700   0.0943   0.03252   0.02373  -0.0761   0.9429   0.6251
  -0.600   0.0921   0.03169   0.02377  -0.0722   0.9384   0.7975
  -0.500   0.1171   0.03174   0.02343  -0.0753   0.9323   1.0000
  -0.400   0.1273   0.03202   0.02350  -0.0757   0.9263   1.0000
  -0.300   0.1486   0.03241   0.02364  -0.0778   0.9221   1.0000
  -0.200   0.1581   0.03271   0.02380  -0.0780   0.9164   1.0000
  -0.100   0.1766   0.03306   0.02398  -0.0797   0.9120   1.0000
   0.000   0.1875   0.03338   0.02418  -0.0801   0.9067   1.0000
   0.100   0.2031   0.03372   0.02439  -0.0812   0.9020   1.0000
   0.200   0.2173   0.03405   0.02461  -0.0822   0.8974   1.0000
   0.300   0.2287   0.03438   0.02484  -0.0826   0.8923   1.0000
   0.400   0.2495   0.03471   0.02505  -0.0845   0.8886   1.0000
   0.500   0.2541   0.03505   0.02533  -0.0839   0.8828   1.0000
   0.600   0.2718   0.03536   0.02555  -0.0853   0.8788   1.0000
   0.700   0.2803   0.03572   0.02584  -0.0853   0.8737   1.0000
   0.800   0.2936   0.03604   0.02609  -0.0860   0.8692   1.0000
   0.900   0.3103   0.03636   0.02633  -0.0872   0.8653   1.0000
   1.000   0.3160   0.03674   0.02666  -0.0868   0.8600   1.0000
   1.100   0.3339   0.03703   0.02688  -0.0881   0.8563   1.0000
   1.200   0.3401   0.03744   0.02724  -0.0878   0.8513   1.0000
   1.300   0.3528   0.03777   0.02752  -0.0883   0.8469   1.0000
   1.400   0.3708   0.03805   0.02774  -0.0896   0.8435   1.0000
   1.500   0.3732   0.03852   0.02817  -0.0888   0.8381   1.0000
   1.600   0.3895   0.03881   0.02841  -0.0898   0.8344   1.0000
   1.700   0.3974   0.03922   0.02879  -0.0897   0.8299   1.0000
   1.800   0.4067   0.03962   0.02915  -0.0898   0.8254   1.0000
   1.900   0.4257   0.03985   0.02934  -0.0911   0.8221   1.0000
   2.000   0.4270   0.04040   0.02986  -0.0902   0.8171   1.0000
   2.100   0.4399   0.04074   0.03017  -0.0907   0.8131   1.0000
   2.200   0.4565   0.04101   0.03041  -0.0917   0.8097   1.0000
   2.300   0.4570   0.04160   0.03098  -0.0907   0.8046   1.0000
   2.400   0.4724   0.04189   0.03124  -0.0915   0.8010   1.0000
   2.500   0.4810   0.04234   0.03167  -0.0915   0.7969   1.0000
   2.600   0.4868   0.04284   0.03216  -0.0911   0.7924   1.0000
   2.700   0.5041   0.04307   0.03237  -0.0921   0.7891   1.0000
   2.800   0.5071   0.04368   0.03296  -0.0915   0.7846   1.0000
   2.900   0.5159   0.04413   0.03339  -0.0915   0.7804   1.0000
   3.000   0.5349   0.04431   0.03356  -0.0926   0.7773   1.0000
   3.100   0.5333   0.04506   0.03431  -0.0915   0.7724   1.0000
   3.200   0.5444   0.04546   0.03469  -0.0917   0.7685   1.0000
   3.300   0.5650   0.04557   0.03480  -0.0930   0.7656   1.0000
   3.400   0.5591   0.04650   0.03572  -0.0914   0.7604   1.0000
   3.500   0.5722   0.04684   0.03606  -0.0919   0.7567   1.0000
   3.600   0.5858   0.04717   0.03639  -0.0924   0.7532   1.0000
   3.700   0.5844   0.04799   0.03721  -0.0913   0.7484   1.0000
   3.800   0.5993   0.04827   0.03749  -0.0919   0.7449   1.0000
   3.900   0.6067   0.04882   0.03804  -0.0918   0.7409   1.0000
   4.000   0.6093   0.04954   0.03876  -0.0912   0.7365   1.0000
   4.100   0.6262   0.04974   0.03897  -0.0919   0.7331   1.0000
   4.200   0.6279   0.05052   0.03976  -0.0913   0.7287   1.0000
   4.300   0.6338   0.05113   0.04038  -0.0910   0.7245   1.0000
   4.400   0.6532   0.05122   0.04048  -0.0919   0.7212   1.0000
   4.500   0.6489   0.05228   0.04154  -0.0907   0.7165   1.0000
   4.600   0.6580   0.05277   0.04205  -0.0907   0.7125   1.0000
   4.700   0.6805   0.05272   0.04202  -0.0918   0.7093   1.0000
   4.800   0.6699   0.05408   0.04338  -0.0902   0.7042   1.0000
   4.900   0.6825   0.05444   0.04376  -0.0905   0.7004   1.0000
   5.000   0.6937   0.05487   0.04420  -0.0907   0.6966   1.0000
   5.100   0.6912   0.05591   0.04526  -0.0897   0.6918   1.0000
   5.200   0.7079   0.05608   0.04545  -0.0903   0.6882   1.0000
   5.300   0.7087   0.05700   0.04639  -0.0897   0.6838   1.0000
   5.400   0.7131   0.05774   0.04715  -0.0893   0.6794   1.0000
   5.500   0.7353   0.05763   0.04708  -0.0902   0.6759   1.0000
   5.600   0.7253   0.05911   0.04857  -0.0888   0.6710   1.0000
   5.700   0.7365   0.05953   0.04902  -0.0889   0.6668   1.0000
   5.800   0.7485   0.05992   0.04944  -0.0890   0.6628   1.0000
   5.900   0.7441   0.06116   0.05069  -0.0882   0.6580   1.0000
   6.000   0.7632   0.06116   0.05072  -0.0887   0.6541   1.0000
   6.100   0.7589   0.06243   0.05201  -0.0878   0.6493   1.0000
   6.200   0.7663   0.06305   0.05267  -0.0876   0.6448   1.0000
   6.300   0.7846   0.06307   0.05273  -0.0880   0.6409   1.0000
   6.400   0.7747   0.06468   0.05435  -0.0869   0.6358   1.0000
   6.500   0.7943   0.06460   0.05432  -0.0874   0.6315   1.0000
   6.600   0.7891   0.06599   0.05572  -0.0865   0.6267   1.0000
   6.700   0.7971   0.06658   0.05635  -0.0864   0.6221   1.0000
   6.800   0.8101   0.06687   0.05668  -0.0864   0.6176   1.0000
   6.900   0.8047   0.06829   0.05812  -0.0856   0.6125   1.0000
   7.000   0.8310   0.06771   0.05762  -0.0861   0.6082   1.0000
   7.100   0.8160   0.06979   0.05970  -0.0850   0.6029   1.0000
   7.200   0.8335   0.06974   0.05971  -0.0851   0.5981   1.0000
   7.300   0.8305   0.07107   0.06106  -0.0845   0.5931   1.0000
   7.400   0.8386   0.07164   0.06167  -0.0843   0.5880   1.0000
   7.500   0.8469   0.07219   0.06226  -0.0840   0.5830   1.0000
   7.600   0.8464   0.07336   0.06346  -0.0835   0.5778   1.0000
   7.700   0.8647   0.07316   0.06334  -0.0834   0.5727   1.0000
   7.800   0.8563   0.07492   0.06511  -0.0827   0.5672   1.0000
   7.900   0.8824   0.07409   0.06436  -0.0828   0.5621   1.0000
   8.000   0.8670   0.07643   0.06670  -0.0820   0.5564   1.0000
   8.100   0.8974   0.07516   0.06552  -0.0820   0.5510   1.0000
   8.200   0.8784   0.07785   0.06820  -0.0812   0.5453   1.0000
   8.300   0.9091   0.07645   0.06692  -0.0810   0.5397   1.0000
   8.400   0.8904   0.07919   0.06965  -0.0804   0.5338   1.0000
   8.500   0.9167   0.07807   0.06862  -0.0800   0.5280   1.0000
   8.600   0.9034   0.08040   0.07095  -0.0795   0.5220   1.0000
   8.700   0.9224   0.07984   0.07047  -0.0790   0.5159   1.0000
   8.800   0.9195   0.08124   0.07190  -0.0785   0.5097   1.0000
   8.900   0.9278   0.08162   0.07234  -0.0779   0.5035   1.0000
   9.000   0.9430   0.08124   0.07205  -0.0773   0.4969   1.0000
   9.100   0.9354   0.08316   0.07398  -0.0768   0.4907   1.0000
   9.200   0.9812   0.07943   0.07042  -0.0756   0.4838   1.0000
   9.300   0.9495   0.08399   0.07492  -0.0756   0.4773   1.0000
   9.400   0.9694   0.08293   0.07396  -0.0746   0.4704   1.0000
   9.500   0.9842   0.08232   0.07343  -0.0737   0.4632   1.0000
   9.700   1.3064   0.04556   0.03743  -0.0718   0.4278   1.0000
   9.800   1.2839   0.04795   0.03993  -0.0689   0.4224   1.0000
   9.900   1.3247   0.04432   0.03623  -0.0692   0.4042   1.0000
  10.000   1.3308   0.04391   0.03585  -0.0677   0.3920   1.0000
  10.100   1.3371   0.04346   0.03538  -0.0662   0.3791   1.0000
  10.200   1.3541   0.04198   0.03376  -0.0652   0.3619   1.0000
  10.300   1.3536   0.04212   0.03389  -0.0632   0.3495   1.0000
  10.400   1.3538   0.04221   0.03394  -0.0613   0.3365   1.0000
  10.500   1.3578   0.04201   0.03360  -0.0596   0.3216   1.0000
  10.600   1.3591   0.04210   0.03355  -0.0578   0.3078   1.0000
  10.700   1.3565   0.04256   0.03395  -0.0558   0.2960   1.0000
  10.800   1.3546   0.04309   0.03440  -0.0539   0.2842   1.0000
  10.900   1.3534   0.04366   0.03487  -0.0522   0.2726   1.0000
  11.000   1.3527   0.04429   0.03540  -0.0506   0.2613   1.0000
  11.100   1.3524   0.04499   0.03599  -0.0491   0.2506   1.0000
  11.200   1.3526   0.04575   0.03666  -0.0477   0.2405   1.0000
  11.300   1.3534   0.04655   0.03737  -0.0465   0.2310   1.0000
  11.400   1.3553   0.04736   0.03808  -0.0454   0.2220   1.0000
  11.500   1.3591   0.04815   0.03876  -0.0445   0.2131   1.0000
  11.600   1.3649   0.04892   0.03939  -0.0438   0.2042   1.0000
  11.700   1.3620   0.05005   0.04062  -0.0425   0.1987   1.0000
  11.800   1.3669   0.05096   0.04146  -0.0418   0.1916   1.0000
  11.900   1.3768   0.05174   0.04210  -0.0415   0.1837   1.0000
  12.000   1.3735   0.05294   0.04345  -0.0402   0.1797   1.0000
  12.100   1.3844   0.05380   0.04419  -0.0401   0.1729   1.0000
  12.200   1.3827   0.05498   0.04548  -0.0390   0.1692   1.0000
  12.300   1.3949   0.05589   0.04627  -0.0390   0.1631   1.0000
  12.400   1.3920   0.05715   0.04769  -0.0378   0.1603   1.0000
  12.500   1.4098   0.05804   0.04841  -0.0383   0.1541   1.0000
  12.600   1.4037   0.05938   0.04994  -0.0369   0.1524   1.0000
  12.700   1.4021   0.06066   0.05133  -0.0359   0.1499   1.0000
  12.800   1.4219   0.06162   0.05215  -0.0366   0.1445   1.0000
  12.900   1.4145   0.06305   0.05376  -0.0352   0.1435   1.0000
  13.000   1.4085   0.06450   0.05538  -0.0340   0.1422   1.0000
  13.100   1.4047   0.06593   0.05693  -0.0331   0.1406   1.0000
  13.200   1.4301   0.06680   0.05760  -0.0340   0.1353   1.0000
  13.300   1.4210   0.06833   0.05931  -0.0327   0.1347   1.0000
  13.400   1.4120   0.06994   0.06109  -0.0316   0.1342   1.0000
  13.500   1.4031   0.07163   0.06293  -0.0306   0.1337   1.0000
  13.600   1.3940   0.07340   0.06484  -0.0297   0.1332   1.0000
  13.700   1.3848   0.07525   0.06682  -0.0290   0.1327   1.0000
  13.800   1.3751   0.07719   0.06890  -0.0284   0.1324   1.0000
  13.900   1.3647   0.07923   0.07107  -0.0279   0.1321   1.0000
  14.000   1.3535   0.08141   0.07337  -0.0276   0.1320   1.0000
  14.100   1.3414   0.08374   0.07583  -0.0274   0.1320   1.0000
  14.200   1.3281   0.08626   0.07847  -0.0275   0.1321   1.0000
  14.300   1.3140   0.08899   0.08131  -0.0278   0.1324   1.0000
  14.400   1.2990   0.09192   0.08435  -0.0283   0.1328   1.0000
  14.500   1.2838   0.09505   0.08758  -0.0290   0.1333   1.0000
  14.600   1.2686   0.09835   0.09096  -0.0300   0.1338   1.0000
  14.700   1.2530   0.10187   0.09456  -0.0313   0.1344   1.0000
  14.800   1.2375   0.10557   0.09832  -0.0327   0.1349   1.0000
  14.900   1.2228   0.10938   0.10219  -0.0343   0.1354   1.0000
  15.300   0.9284   0.19184   0.18414  -0.0967   0.2850   1.0000
  15.400   0.9296   0.19308   0.18539  -0.0974   0.2819   1.0000
  15.500   0.9399   0.19512   0.18748  -0.0971   0.2784   1.0000
  15.600   0.9453   0.19724   0.18961  -0.0975   0.2770   1.0000
  15.700   0.9405   0.19799   0.19034  -0.0989   0.2756   1.0000
  15.800   0.9392   0.19895   0.19130  -0.0999   0.2729   1.0000
  15.900   0.9440   0.20042   0.19279  -0.1002   0.2696   1.0000
  16.000   0.9588   0.20352   0.19594  -0.0995   0.2668   1.0000
  16.100   0.9532   0.20402   0.19642  -0.1010   0.2658   1.0000
  16.200   0.9499   0.20464   0.19702  -0.1022   0.2631   1.0000
  16.300   0.9535   0.20596   0.19835  -0.1027   0.2598   1.0000
  16.400   0.9646   0.20840   0.20084  -0.1024   0.2571   1.0000
  16.500   0.9663   0.20997   0.20240  -0.1032   0.2558   1.0000
  16.600   0.9616   0.21029   0.20271  -0.1046   0.2535   1.0000
  16.700   0.9637   0.21140   0.20383  -0.1053   0.2501   1.0000
  16.800   0.9726   0.21346   0.20592  -0.1051   0.2472   1.0000
  16.900   0.9795   0.21582   0.20830  -0.1054   0.2457   1.0000
  17.000   0.9741   0.21594   0.20839  -0.1070   0.2439   1.0000
  17.100   0.9746   0.21680   0.20925  -0.1080   0.2407   1.0000
  17.200   0.9809   0.21844   0.21093  -0.1081   0.2377   1.0000
  17.300   0.9937   0.22176   0.21428  -0.1075   0.2355   1.0000
  17.400   0.9875   0.22160   0.21410  -0.1093   0.2343   1.0000
  17.500   0.9862   0.22213   0.21462  -0.1106   0.2312   1.0000
  17.600   0.9908   0.22354   0.21605  -0.1110   0.2282   1.0000
  17.700   1.0009   0.22611   0.21865  -0.1106   0.2259   1.0000
  17.800   1.0027   0.22754   0.22008  -0.1115   0.2247   1.0000
  17.900   0.9987   0.22757   0.22008  -0.1132   0.2223   1.0000
  18.000   1.0013   0.22863   0.22115  -0.1139   0.2192   1.0000
  18.100   1.0084   0.23048   0.22304  -0.1139   0.2166   1.0000
  18.200   1.0188   0.23366   0.22625  -0.1135   0.2149   1.0000
  18.300   1.0131   0.23322   0.22578  -0.1155   0.2135   1.0000
  18.400   1.0129   0.23382   0.22637  -0.1168   0.2107   1.0000
  18.500   1.0171   0.23515   0.22771  -0.1173   0.2080   1.0000
  18.600   1.0258   0.23750   0.23010  -0.1170   0.2057   1.0000
  18.700   1.0303   0.23950   0.23210  -0.1175   0.2044   1.0000
  18.800   1.0264   0.23927   0.23186  -0.1194   0.2025   1.0000
  18.900   1.0280   0.24010   0.23269  -0.1204   0.1996   1.0000
  19.000   1.0333   0.24165   0.23425  -0.1207   0.1970   1.0000
  19.100   1.0432   0.24458   0.23723  -0.1201   0.1951   1.0000
  19.200   1.0441   0.24564   0.23828  -0.1213   0.1941   1.0000
  19.300   1.0412   0.24548   0.23810  -0.1232   0.1921   1.0000
  19.400   1.0431   0.24637   0.23899  -0.1241   0.1894   1.0000
  19.500   1.0482   0.24788   0.24052  -0.1244   0.1870   1.0000
  19.600   1.0581   0.25088   0.24356  -0.1238   0.1851   1.0000
  19.700   1.0590   0.25188   0.24455  -0.1250   0.1841   1.0000
  19.800   1.0563   0.25166   0.24431  -0.1270   0.1821   1.0000
  19.900   1.0583   0.25253   0.24518  -0.1280   0.1795   1.0000
  20.000   1.0629   0.25394   0.24661  -0.1284   0.1773   1.0000
