  
       XFOIL         Version 6.99
  
 Calculated polar for: NACA 4412                                       
  
 1 1 Reynolds number fixed          Mach number fixed         
  
 xtrf =   1.000 (top)        1.000 (bottom)  
 Mach =   0.000     Re =     0.500 e 6     Ncrit =   9.000
  
   alpha    CL        CD       CDp       CM     Top_Xtr  Bot_Xtr
  ------ -------- --------- --------- -------- -------- --------
 -10.000  -0.4908   0.06276   0.06062  -0.0583   0.9969   0.0255
  -9.900  -0.4819   0.06195   0.05981  -0.0598   0.9961   0.0257
  -9.800  -0.4709   0.06160   0.05946  -0.0610   0.9955   0.0258
  -9.700  -0.4585   0.06179   0.05965  -0.0618   0.9946   0.0260
  -9.600  -0.4434   0.06264   0.06049  -0.0620   0.9939   0.0263
  -9.500  -0.3704   0.07827   0.07608  -0.0529   0.9960   0.0287
  -9.400  -0.3643   0.07681   0.07463  -0.0545   0.9954   0.0289
  -9.300  -0.3564   0.07600   0.07382  -0.0557   0.9944   0.0293
  -9.200  -0.3383   0.07781   0.07563  -0.0558   0.9937   0.0327
  -9.100  -0.3305   0.07684   0.07465  -0.0570   0.9926   0.0331
  -8.900  -0.3931   0.07671   0.07449  -0.0548   0.9942   0.0330
  -8.800  -0.5182   0.02014   0.01472  -0.1015   0.9713   0.0278
  -8.700  -0.5049   0.01950   0.01399  -0.1022   0.9706   0.0281
  -8.600  -0.4913   0.01898   0.01349  -0.1031   0.9701   0.0285
  -8.500  -0.4769   0.01865   0.01316  -0.1040   0.9696   0.0288
  -8.400  -0.4622   0.01835   0.01284  -0.1049   0.9692   0.0292
  -8.300  -0.4476   0.01805   0.01251  -0.1058   0.9688   0.0297
  -8.100  -0.4255   0.01749   0.01185  -0.1059   0.9645   0.0306
  -8.000  -0.4126   0.01720   0.01150  -0.1064   0.9630   0.0311
  -7.900  -0.3990   0.01696   0.01116  -0.1069   0.9618   0.0315
  -7.800  -0.3862   0.01642   0.01061  -0.1075   0.9606   0.0321
  -7.700  -0.3726   0.01610   0.01031  -0.1081   0.9596   0.0326
  -7.600  -0.3589   0.01586   0.01007  -0.1087   0.9586   0.0331
  -7.500  -0.3452   0.01562   0.00981  -0.1093   0.9576   0.0337
  -7.400  -0.3365   0.01543   0.00958  -0.1088   0.9540   0.0342
  -7.300  -0.3252   0.01520   0.00931  -0.1088   0.9518   0.0348
  -7.200  -0.3131   0.01497   0.00903  -0.1090   0.9500   0.0353
  -7.100  -0.3008   0.01475   0.00875  -0.1092   0.9485   0.0359
  -7.000  -0.2892   0.01433   0.00834  -0.1094   0.9471   0.0366
  -6.900  -0.2774   0.01412   0.00815  -0.1096   0.9456   0.0372
  -6.800  -0.2683   0.01399   0.00801  -0.1092   0.9423   0.0378
  -6.700  -0.2575   0.01383   0.00783  -0.1091   0.9398   0.0386
  -6.600  -0.2460   0.01366   0.00762  -0.1091   0.9378   0.0394
  -6.500  -0.2342   0.01349   0.00741  -0.1092   0.9361   0.0401
  -6.400  -0.2228   0.01320   0.00709  -0.1093   0.9345   0.0408
  -6.300  -0.2135   0.01297   0.00688  -0.1089   0.9314   0.0416
  -6.200  -0.2032   0.01282   0.00673  -0.1088   0.9285   0.0424
  -6.100  -0.1921   0.01267   0.00658  -0.1087   0.9261   0.0432
  -6.000  -0.1808   0.01253   0.00641  -0.1087   0.9240   0.0443
  -5.900  -0.1691   0.01241   0.00624  -0.1087   0.9223   0.0452
  -5.800  -0.1594   0.01219   0.00601  -0.1084   0.9189   0.0462
  -5.700  -0.1492   0.01200   0.00584  -0.1083   0.9159   0.0472
  -5.600  -0.1382   0.01187   0.00570  -0.1082   0.9134   0.0483
  -5.500  -0.1270   0.01174   0.00555  -0.1081   0.9112   0.0495
  -5.400  -0.1158   0.01163   0.00541  -0.1081   0.9088   0.0507
  -5.300  -0.1056   0.01149   0.00525  -0.1079   0.9052   0.0519
  -5.200  -0.0952   0.01129   0.00506  -0.1077   0.9021   0.0533
  -5.100  -0.0841   0.01117   0.00494  -0.1077   0.8995   0.0547
  -5.000  -0.0726   0.01107   0.00481  -0.1076   0.8973   0.0563
  -4.900  -0.0622   0.01100   0.00471  -0.1074   0.8934   0.0577
  -4.800  -0.0517   0.01080   0.00452  -0.1073   0.8900   0.0594
  -4.700  -0.0407   0.01067   0.00440  -0.1072   0.8871   0.0612
  -4.600  -0.0294   0.01059   0.00429  -0.1072   0.8847   0.0631
  -4.500  -0.0187   0.01052   0.00421  -0.1070   0.8807   0.0650
  -4.400  -0.0081   0.01035   0.00405  -0.1069   0.8772   0.0672
  -4.300   0.0030   0.01025   0.00394  -0.1069   0.8742   0.0695
  -4.200   0.0142   0.01018   0.00385  -0.1068   0.8711   0.0719
  -4.100   0.0249   0.01008   0.00374  -0.1067   0.8671   0.0743
  -4.000   0.0357   0.00995   0.00363  -0.1066   0.8635   0.0772
  -3.900   0.0470   0.00988   0.00354  -0.1065   0.8604   0.0801
  -3.800   0.0579   0.00981   0.00345  -0.1064   0.8565   0.0830
  -3.700   0.0686   0.00969   0.00336  -0.1063   0.8525   0.0866
  -3.600   0.0798   0.00963   0.00327  -0.1063   0.8490   0.0902
  -3.500   0.0908   0.00954   0.00318  -0.1062   0.8454   0.0940
  -3.400   0.1016   0.00945   0.00311  -0.1061   0.8411   0.0981
  -3.300   0.1128   0.00941   0.00304  -0.1060   0.8373   0.1023
  -3.200   0.1238   0.00931   0.00296  -0.1060   0.8336   0.1073
  -3.100   0.1347   0.00925   0.00290  -0.1059   0.8291   0.1123
  -3.000   0.1457   0.00917   0.00283  -0.1058   0.8250   0.1176
  -2.900   0.1568   0.00912   0.00276  -0.1058   0.8213   0.1235
  -2.800   0.1677   0.00904   0.00271  -0.1057   0.8165   0.1296
  -2.700   0.1788   0.00900   0.00265  -0.1056   0.8123   0.1361
  -2.600   0.1898   0.00893   0.00260  -0.1056   0.8083   0.1429
  -2.500   0.2007   0.00888   0.00255  -0.1055   0.8035   0.1502
  -2.400   0.2117   0.00882   0.00251  -0.1054   0.7991   0.1581
  -2.300   0.2227   0.00877   0.00246  -0.1054   0.7947   0.1660
  -2.100   0.2447   0.00868   0.00238  -0.1052   0.7854   0.1840
  -2.000   0.2556   0.00863   0.00235  -0.1052   0.7806   0.1932
  -1.900   0.2666   0.00858   0.00232  -0.1051   0.7757   0.2031
  -1.800   0.2775   0.00855   0.00228  -0.1050   0.7713   0.2136
  -1.700   0.2885   0.00850   0.00226  -0.1049   0.7660   0.2246
  -1.600   0.2994   0.00846   0.00224  -0.1049   0.7611   0.2361
  -1.500   0.3103   0.00842   0.00221  -0.1048   0.7562   0.2481
  -1.400   0.3212   0.00838   0.00219  -0.1047   0.7509   0.2607
  -1.300   0.3320   0.00835   0.00217  -0.1047   0.7462   0.2740
  -1.200   0.3429   0.00830   0.00216  -0.1046   0.7407   0.2881
  -1.100   0.3538   0.00827   0.00214  -0.1045   0.7356   0.3034
  -0.900   0.3754   0.00817   0.00211  -0.1044   0.7250   0.3375
  -0.800   0.3861   0.00812   0.00209  -0.1043   0.7200   0.3580
  -0.700   0.3968   0.00805   0.00208  -0.1042   0.7144   0.3821
  -0.600   0.4072   0.00795   0.00207  -0.1041   0.7092   0.4149
  -0.500   0.4175   0.00781   0.00208  -0.1040   0.7037   0.4672
  -0.400   0.4275   0.00765   0.00210  -0.1038   0.6983   0.5309
  -0.300   0.4372   0.00750   0.00212  -0.1035   0.6932   0.5946
  -0.200   0.4468   0.00735   0.00214  -0.1032   0.6876   0.6547
  -0.100   0.4559   0.00722   0.00217  -0.1027   0.6826   0.7123
   0.000   0.4646   0.00708   0.00220  -0.1020   0.6770   0.7709
   0.100   0.4722   0.00695   0.00224  -0.1010   0.6719   0.8297
   0.200   0.4797   0.00686   0.00227  -0.0999   0.6668   0.8885
   0.300   0.4937   0.00683   0.00229  -0.1002   0.6612   0.9425
   0.400   0.5144   0.00685   0.00228  -0.1022   0.6557   0.9770
   0.500   0.5345   0.00688   0.00227  -0.1042   0.6497   0.9950
   0.600   0.5490   0.00694   0.00226  -0.1049   0.6445   1.0000
   0.700   0.5592   0.00697   0.00227  -0.1047   0.6390   1.0000
   0.800   0.5693   0.00703   0.00228  -0.1045   0.6339   1.0000
   0.900   0.5796   0.00707   0.00229  -0.1043   0.6288   1.0000
   1.000   0.5898   0.00712   0.00230  -0.1041   0.6236   1.0000
   1.100   0.6000   0.00718   0.00231  -0.1038   0.6190   1.0000
   1.200   0.6104   0.00722   0.00233  -0.1037   0.6138   1.0000
   1.300   0.6207   0.00728   0.00234  -0.1035   0.6090   1.0000
   1.400   0.6310   0.00733   0.00236  -0.1033   0.6044   1.0000
   1.500   0.6415   0.00738   0.00238  -0.1031   0.5996   1.0000
   1.600   0.6518   0.00745   0.00240  -0.1029   0.5952   1.0000
   1.700   0.6623   0.00750   0.00243  -0.1028   0.5907   1.0000
   1.800   0.6728   0.00755   0.00245  -0.1026   0.5862   1.0000
   1.900   0.6831   0.00762   0.00248  -0.1025   0.5822   1.0000
   2.000   0.6937   0.00766   0.00251  -0.1023   0.5779   1.0000
   2.100   0.7043   0.00772   0.00254  -0.1022   0.5736   1.0000
   2.200   0.7146   0.00779   0.00257  -0.1020   0.5698   1.0000
   2.300   0.7253   0.00784   0.00260  -0.1019   0.5658   1.0000
   2.400   0.7359   0.00789   0.00263  -0.1018   0.5618   1.0000
   2.500   0.7464   0.00796   0.00267  -0.1017   0.5581   1.0000
   2.600   0.7569   0.00802   0.00271  -0.1015   0.5546   1.0000
   2.700   0.7676   0.00807   0.00275  -0.1014   0.5507   1.0000
   2.800   0.7782   0.00813   0.00278  -0.1013   0.5470   1.0000
   2.900   0.7886   0.00821   0.00283  -0.1012   0.5438   1.0000
   3.000   0.7993   0.00825   0.00287  -0.1011   0.5402   1.0000
   3.100   0.8100   0.00831   0.00291  -0.1010   0.5366   1.0000
   3.200   0.8205   0.00837   0.00296  -0.1008   0.5333   1.0000
   3.300   0.8310   0.00845   0.00300  -0.1007   0.5303   1.0000
   3.400   0.8418   0.00849   0.00305  -0.1006   0.5268   1.0000
   3.500   0.8524   0.00855   0.00310  -0.1005   0.5233   1.0000
   3.600   0.8629   0.00863   0.00315  -0.1004   0.5202   1.0000
   3.700   0.8734   0.00870   0.00320  -0.1003   0.5172   1.0000
   3.800   0.8842   0.00874   0.00325  -0.1002   0.5138   1.0000
   3.900   0.8947   0.00880   0.00330  -0.1001   0.5105   1.0000
   4.000   0.9052   0.00888   0.00336  -0.1000   0.5074   1.0000
   4.100   0.9157   0.00896   0.00341  -0.0998   0.5045   1.0000
   4.200   0.9264   0.00900   0.00347  -0.0998   0.5011   1.0000
   4.300   0.9370   0.00906   0.00352  -0.0996   0.4977   1.0000
   4.400   0.9473   0.00914   0.00359  -0.0995   0.4947   1.0000
   4.500   0.9578   0.00922   0.00365  -0.0994   0.4916   1.0000
   4.600   0.9684   0.00926   0.00371  -0.0993   0.4881   1.0000
   4.700   0.9789   0.00933   0.00377  -0.0992   0.4847   1.0000
   4.800   0.9891   0.00942   0.00383  -0.0990   0.4815   1.0000
   4.900   0.9996   0.00948   0.00389  -0.0989   0.4781   1.0000
   5.000   1.0101   0.00953   0.00396  -0.0987   0.4743   1.0000
   5.100   1.0203   0.00961   0.00402  -0.0986   0.4705   1.0000
   5.200   1.0304   0.00970   0.00409  -0.0984   0.4670   1.0000
   5.300   1.0409   0.00975   0.00415  -0.0983   0.4627   1.0000
   5.400   1.0511   0.00982   0.00421  -0.0981   0.4584   1.0000
   5.500   1.0609   0.00992   0.00428  -0.0979   0.4544   1.0000
   5.600   1.0714   0.00996   0.00435  -0.0977   0.4497   1.0000
   5.700   1.0814   0.01004   0.00442  -0.0975   0.4452   1.0000
   5.800   1.0913   0.01013   0.00449  -0.0973   0.4410   1.0000
   5.900   1.1016   0.01019   0.00456  -0.0972   0.4362   1.0000
   6.000   1.1115   0.01028   0.00463  -0.0969   0.4317   1.0000
   6.100   1.1215   0.01036   0.00471  -0.0968   0.4274   1.0000
   6.200   1.1317   0.01042   0.00479  -0.0966   0.4225   1.0000
   6.300   1.1413   0.01053   0.00487  -0.0963   0.4181   1.0000
   6.400   1.1515   0.01059   0.00494  -0.0962   0.4132   1.0000
   6.500   1.1613   0.01068   0.00502  -0.0959   0.4081   1.0000
   6.600   1.1710   0.01077   0.00511  -0.0957   0.4033   1.0000
   6.700   1.1810   0.01085   0.00519  -0.0955   0.3976   1.0000
   6.800   1.1903   0.01096   0.00528  -0.0952   0.3923   1.0000
   6.900   1.2003   0.01103   0.00537  -0.0950   0.3861   1.0000
   7.000   1.2095   0.01116   0.00546  -0.0947   0.3802   1.0000
   7.100   1.2192   0.01124   0.00555  -0.0944   0.3734   1.0000
   7.200   1.2283   0.01137   0.00566  -0.0941   0.3667   1.0000
   7.300   1.2376   0.01149   0.00576  -0.0938   0.3593   1.0000
   7.400   1.2466   0.01162   0.00588  -0.0935   0.3517   1.0000
   7.500   1.2551   0.01178   0.00600  -0.0930   0.3438   1.0000
   7.600   1.2640   0.01192   0.00612  -0.0927   0.3351   1.0000
   7.700   1.2725   0.01208   0.00625  -0.0922   0.3261   1.0000
   7.800   1.2807   0.01226   0.00640  -0.0918   0.3168   1.0000
   7.900   1.2887   0.01245   0.00655  -0.0913   0.3069   1.0000
   8.000   1.2965   0.01266   0.00671  -0.0907   0.2964   1.0000
   8.100   1.3040   0.01288   0.00689  -0.0902   0.2854   1.0000
   8.200   1.3113   0.01312   0.00707  -0.0896   0.2739   1.0000
   8.300   1.3182   0.01338   0.00727  -0.0889   0.2622   1.0000
   8.400   1.3249   0.01365   0.00748  -0.0883   0.2497   1.0000
   8.500   1.3312   0.01395   0.00771  -0.0875   0.2371   1.0000
   8.600   1.3374   0.01425   0.00794  -0.0868   0.2241   1.0000
   8.700   1.3432   0.01457   0.00819  -0.0859   0.2111   1.0000
   8.800   1.3487   0.01490   0.00845  -0.0851   0.1981   1.0000
   8.900   1.3538   0.01524   0.00872  -0.0842   0.1851   1.0000
   9.000   1.3582   0.01559   0.00900  -0.0831   0.1730   1.0000
   9.100   1.3623   0.01593   0.00928  -0.0820   0.1610   1.0000
   9.200   1.3663   0.01629   0.00958  -0.0809   0.1497   1.0000
   9.300   1.3701   0.01667   0.00988  -0.0798   0.1391   1.0000
   9.500   1.3779   0.01742   0.01053  -0.0776   0.1198   1.0000
   9.600   1.3818   0.01780   0.01086  -0.0766   0.1112   1.0000
   9.700   1.3857   0.01818   0.01120  -0.0755   0.1034   1.0000
   9.800   1.3895   0.01856   0.01154  -0.0745   0.0964   1.0000
   9.900   1.3934   0.01895   0.01190  -0.0735   0.0902   1.0000
  10.000   1.3974   0.01933   0.01225  -0.0725   0.0845   1.0000
  10.100   1.4014   0.01972   0.01262  -0.0715   0.0795   1.0000
  10.200   1.4053   0.02011   0.01299  -0.0706   0.0751   1.0000
  10.300   1.4092   0.02051   0.01337  -0.0696   0.0712   1.0000
  10.400   1.4129   0.02093   0.01377  -0.0687   0.0677   1.0000
  10.500   1.4172   0.02131   0.01416  -0.0678   0.0644   1.0000
  10.600   1.4210   0.02173   0.01457  -0.0669   0.0617   1.0000
  10.700   1.4248   0.02215   0.01499  -0.0661   0.0591   1.0000
  10.800   1.4287   0.02257   0.01541  -0.0652   0.0569   1.0000
  10.900   1.4324   0.02301   0.01585  -0.0644   0.0548   1.0000
  11.000   1.4359   0.02347   0.01632  -0.0635   0.0530   1.0000
  11.100   1.4399   0.02390   0.01676  -0.0627   0.0511   1.0000
  11.200   1.4426   0.02442   0.01728  -0.0618   0.0496   1.0000
  11.300   1.4466   0.02487   0.01774  -0.0611   0.0481   1.0000
  11.400   1.4504   0.02533   0.01823  -0.0604   0.0466   1.0000
  11.500   1.4530   0.02589   0.01879  -0.0595   0.0454   1.0000
  11.600   1.4556   0.02646   0.01937  -0.0587   0.0443   1.0000
  11.700   1.4597   0.02692   0.01986  -0.0581   0.0431   1.0000
  11.800   1.4629   0.02745   0.02041  -0.0574   0.0420   1.0000
  11.900   1.4652   0.02807   0.02104  -0.0566   0.0411   1.0000
  12.000   1.4659   0.02882   0.02179  -0.0557   0.0403   1.0000
  12.100   1.4700   0.02931   0.02232  -0.0552   0.0393   1.0000
  12.200   1.4734   0.02986   0.02291  -0.0546   0.0384   1.0000
  12.300   1.4762   0.03047   0.02354  -0.0540   0.0376   1.0000
  12.400   1.4779   0.03118   0.02427  -0.0533   0.0369   1.0000
  12.500   1.4780   0.03204   0.02513  -0.0526   0.0363   1.0000
  12.600   1.4798   0.03277   0.02589  -0.0520   0.0357   1.0000
  12.700   1.4831   0.03338   0.02655  -0.0515   0.0349   1.0000
  12.800   1.4857   0.03406   0.02726  -0.0509   0.0343   1.0000
  12.900   1.4878   0.03479   0.02802  -0.0504   0.0337   1.0000
  13.000   1.4894   0.03558   0.02883  -0.0499   0.0332   1.0000
  13.100   1.4898   0.03649   0.02975  -0.0494   0.0327   1.0000
  13.200   1.4888   0.03754   0.03082  -0.0488   0.0323   1.0000
  13.300   1.4887   0.03853   0.03184  -0.0483   0.0318   1.0000
  13.400   1.4912   0.03928   0.03264  -0.0479   0.0314   1.0000
  13.500   1.4930   0.04010   0.03350  -0.0476   0.0309   1.0000
  13.600   1.4945   0.04097   0.03440  -0.0472   0.0304   1.0000
  13.700   1.4958   0.04187   0.03533  -0.0468   0.0300   1.0000
  13.800   1.4968   0.04281   0.03630  -0.0465   0.0296   1.0000
  13.900   1.4971   0.04382   0.03734  -0.0462   0.0292   1.0000
  14.000   1.4964   0.04496   0.03849  -0.0459   0.0288   1.0000
  14.100   1.4943   0.04625   0.03981  -0.0456   0.0285   1.0000
  14.200   1.4916   0.04764   0.04122  -0.0453   0.0283   1.0000
  14.300   1.4937   0.04853   0.04216  -0.0451   0.0279   1.0000
  14.400   1.4948   0.04954   0.04322  -0.0449   0.0276   1.0000
  14.500   1.4957   0.05058   0.04430  -0.0447   0.0272   1.0000
  14.600   1.4961   0.05168   0.04544  -0.0446   0.0269   1.0000
  14.700   1.4964   0.05280   0.04660  -0.0444   0.0266   1.0000
  14.800   1.4963   0.05397   0.04780  -0.0443   0.0263   1.0000
  14.900   1.4962   0.05517   0.04903  -0.0442   0.0260   1.0000
  15.000   1.4957   0.05642   0.05030  -0.0442   0.0258   1.0000
  15.100   1.4947   0.05773   0.05164  -0.0441   0.0255   1.0000
  15.200   1.4929   0.05915   0.05308  -0.0441   0.0253   1.0000
  15.300   1.4901   0.06067   0.05463  -0.0440   0.0251   1.0000
  15.400   1.4864   0.06231   0.05628  -0.0439   0.0249   1.0000
  15.500   1.4866   0.06353   0.05755  -0.0440   0.0247   1.0000
  15.600   1.4870   0.06473   0.05881  -0.0440   0.0245   1.0000
  15.700   1.4871   0.06598   0.06010  -0.0440   0.0242   1.0000
  15.800   1.4870   0.06726   0.06143  -0.0441   0.0240   1.0000
  15.900   1.4866   0.06858   0.06279  -0.0442   0.0237   1.0000
  16.000   1.4861   0.06991   0.06416  -0.0442   0.0235   1.0000
  16.100   1.4855   0.07126   0.06554  -0.0443   0.0233   1.0000
  16.200   1.4851   0.07261   0.06692  -0.0445   0.0230   1.0000
  16.300   1.4842   0.07402   0.06836  -0.0446   0.0228   1.0000
  16.400   1.4833   0.07542   0.06978  -0.0448   0.0226   1.0000
  16.500   1.4822   0.07687   0.07125  -0.0449   0.0225   1.0000
  16.600   1.4808   0.07834   0.07274  -0.0451   0.0223   1.0000
  16.700   1.4790   0.07985   0.07427  -0.0453   0.0221   1.0000
  16.800   1.4765   0.08141   0.07584  -0.0454   0.0219   1.0000
  16.900   1.4739   0.08295   0.07739  -0.0454   0.0218   1.0000
  17.000   1.4735   0.08436   0.07886  -0.0457   0.0216   1.0000
  17.100   1.4730   0.08578   0.08034  -0.0459   0.0214   1.0000
  17.200   1.4722   0.08724   0.08185  -0.0462   0.0213   1.0000
  17.300   1.4715   0.08869   0.08335  -0.0464   0.0211   1.0000
  17.400   1.4708   0.09015   0.08485  -0.0467   0.0209   1.0000
  17.500   1.4698   0.09163   0.08637  -0.0470   0.0208   1.0000
  17.600   1.4690   0.09308   0.08786  -0.0473   0.0206   1.0000
  17.700   1.4681   0.09456   0.08938  -0.0476   0.0204   1.0000
  17.800   1.4672   0.09604   0.09089  -0.0479   0.0203   1.0000
  17.900   1.4665   0.09749   0.09237  -0.0482   0.0201   1.0000
  18.000   1.4657   0.09896   0.09388  -0.0486   0.0200   1.0000
  18.100   1.4650   0.10043   0.09537  -0.0490   0.0198   1.0000
  18.200   1.4644   0.10186   0.09682  -0.0493   0.0197   1.0000
  18.300   1.4638   0.10330   0.09828  -0.0497   0.0196   1.0000
  18.400   1.4632   0.10472   0.09972  -0.0500   0.0194   1.0000
  18.500   1.4626   0.10611   0.10111  -0.0503   0.0193   1.0000
  18.600   1.4622   0.10742   0.10244  -0.0506   0.0192   1.0000
  18.700   1.4619   0.10863   0.10364  -0.0507   0.0190   1.0000
  18.800   1.4610   0.11007   0.10512  -0.0511   0.0188   1.0000
  18.900   1.4599   0.11170   0.10681  -0.0516   0.0187   1.0000
  19.000   1.4587   0.11334   0.10850  -0.0523   0.0186   1.0000
  19.100   1.4576   0.11494   0.11017  -0.0528   0.0185   1.0000
  19.200   1.4566   0.11655   0.11182  -0.0534   0.0184   1.0000
  19.300   1.4555   0.11816   0.11349  -0.0541   0.0182   1.0000
  19.400   1.4545   0.11977   0.11514  -0.0547   0.0181   1.0000
  19.500   1.4536   0.12135   0.11676  -0.0553   0.0180   1.0000
  19.600   1.4526   0.12295   0.11840  -0.0560   0.0178   1.0000
  19.700   1.4518   0.12451   0.12001  -0.0567   0.0177   1.0000
  19.800   1.4513   0.12602   0.12155  -0.0573   0.0176   1.0000
  19.900   1.4507   0.12756   0.12312  -0.0580   0.0175   1.0000
  20.000   1.4501   0.12909   0.12469  -0.0587   0.0173   1.0000
