  
       XFOIL         Version 6.99
  
 Calculated polar for: NACA 4412                                       
  
 1 1 Reynolds number fixed          Mach number fixed         
  
 xtrf =   1.000 (top)        1.000 (bottom)  
 Mach =   0.000     Re =     0.060 e 6     Ncrit =   9.000
  
   alpha    CL        CD       CDp       CM     Top_Xtr  Bot_Xtr
  ------ -------- --------- --------- -------- -------- --------
 -10.000  -0.3268   0.12146   0.11470  -0.0358   1.0000   0.1722
  -9.900  -0.3365   0.12149   0.11479  -0.0366   1.0000   0.1733
  -9.800  -0.3408   0.12070   0.11405  -0.0369   1.0000   0.1740
  -9.700  -0.3244   0.11778   0.11110  -0.0356   1.0000   0.1760
  -9.600  -0.3197   0.11644   0.10977  -0.0352   1.0000   0.1782
  -9.500  -0.3192   0.11548   0.10883  -0.0350   1.0000   0.1807
  -9.400  -0.3237   0.11495   0.10834  -0.0351   1.0000   0.1830
  -9.300  -0.3341   0.11493   0.10838  -0.0356   1.0000   0.1844
  -9.200  -0.3467   0.11507   0.10860  -0.0360   1.0000   0.1850
  -9.100  -0.3243   0.11163   0.10511  -0.0345   1.0000   0.1877
  -9.000  -0.3204   0.11043   0.10392  -0.0339   1.0000   0.1905
  -8.900  -0.3227   0.10971   0.10324  -0.0337   1.0000   0.1932
  -8.800  -0.3319   0.10952   0.10310  -0.0337   1.0000   0.1952
  -8.700  -0.3449   0.10962   0.10329  -0.0338   1.0000   0.1961
  -8.600  -0.3369   0.10753   0.10120  -0.0331   1.0000   0.1978
  -8.500  -0.3270   0.10583   0.09949  -0.0321   1.0000   0.2007
  -8.400  -0.3276   0.10499   0.09868  -0.0315   1.0000   0.2034
  -8.300  -0.3350   0.10462   0.09836  -0.0311   1.0000   0.2058
  -8.200  -0.3484   0.10470   0.09851  -0.0306   1.0000   0.2072
  -8.100  -0.3638   0.10489   0.09879  -0.0299   1.0000   0.2078
  -8.000  -0.3449   0.10203   0.09589  -0.0292   1.0000   0.2103
  -7.900  -0.3405   0.10084   0.09471  -0.0283   1.0000   0.2129
  -7.800  -0.3441   0.10021   0.09412  -0.0275   1.0000   0.2155
  -7.700  -0.3546   0.10003   0.09400  -0.0266   1.0000   0.2176
  -7.600  -0.3699   0.10016   0.09422  -0.0254   1.0000   0.2187
  -7.500  -0.3864   0.10037   0.09451  -0.0241   1.0000   0.2192
  -7.400  -0.4034   0.10054   0.09476  -0.0228   1.0000   0.2195
  -7.300  -0.3651   0.09670   0.09082  -0.0226   1.0000   0.2253
  -7.200  -0.3728   0.09632   0.09049  -0.0213   1.0000   0.2276
  -7.100  -0.3856   0.09623   0.09047  -0.0199   1.0000   0.2291
  -7.000  -0.4012   0.09625   0.09057  -0.0187   1.0000   0.2301
  -6.900  -0.4178   0.09616   0.09055  -0.0186   1.0000   0.2310
  -6.700  -0.4009   0.09312   0.08751  -0.0155   1.0000   0.2370
  -6.600  -0.4084   0.09261   0.08705  -0.0148   1.0000   0.2398
  -6.500  -0.4236   0.09237   0.08688  -0.0150   1.0000   0.2420
  -6.300  -0.4227   0.09009   0.08465  -0.0128   1.0000   0.2462
  -6.200  -0.4229   0.08926   0.08383  -0.0118   1.0000   0.2495
  -6.100  -0.4334   0.08874   0.08336  -0.0121   1.0000   0.2531
  -6.000  -0.4466   0.08800   0.08268  -0.0136   1.0000   0.2552
  -5.900  -0.4375   0.08663   0.08131  -0.0108   1.0000   0.2576
  -5.800  -0.4364   0.08575   0.08044  -0.0096   1.0000   0.2609
  -5.700  -0.4518   0.08524   0.07997  -0.0123   1.0000   0.2663
  -5.600  -0.4488   0.08389   0.07864  -0.0106   1.0000   0.2680
  -5.500  -0.4448   0.08288   0.07765  -0.0087   1.0000   0.2707
  -5.400  -0.4472   0.08207   0.07685  -0.0086   1.0000   0.2757
  -5.300  -0.4526   0.08092   0.07572  -0.0097   1.0000   0.2798
  -5.200  -0.4487   0.07999   0.07481  -0.0076   1.0000   0.2828
  -5.100  -0.4559   0.07905   0.07387  -0.0105   1.0000   0.2907
  -5.000  -0.4516   0.07795   0.07280  -0.0077   1.0000   0.2929
  -4.900  -0.4499   0.07712   0.07199  -0.0065   1.0000   0.2976
  -4.800  -0.4521   0.07596   0.07083  -0.0075   1.0000   0.3041
  -4.700  -0.4495   0.07511   0.07000  -0.0059   1.0000   0.3080
  -4.600  -0.4507   0.07398   0.06887  -0.0070   1.0000   0.3158
  -4.500  -0.4481   0.07310   0.06801  -0.0054   1.0000   0.3196
  -4.400  -0.4480   0.07200   0.06690  -0.0062   1.0000   0.3279
  -4.300  -0.4455   0.07114   0.06606  -0.0049   1.0000   0.3323
  -4.200  -0.4444   0.07008   0.06500  -0.0051   1.0000   0.3406
  -4.000  -0.4404   0.06829   0.06323  -0.0036   1.0000   0.3550
  -3.900  -0.3921   0.05817   0.05238  -0.0297   1.0000   0.2571
  -3.800  -0.3903   0.05803   0.05230  -0.0281   1.0000   0.2697
  -3.700  -0.3887   0.05790   0.05223  -0.0263   1.0000   0.2828
  -3.600  -0.3053   0.04027   0.03211  -0.0513   1.0000   0.1578
  -3.500  -0.2945   0.03926   0.03086  -0.0519   1.0000   0.1595
  -3.400  -0.2828   0.03820   0.02947  -0.0527   1.0000   0.1614
  -3.300  -0.2726   0.03740   0.02850  -0.0532   1.0000   0.1634
  -3.200  -0.2640   0.03710   0.02825  -0.0532   0.9996   0.1661
  -3.100  -0.2419   0.03637   0.02730  -0.0557   0.9964   0.1708
  -3.000  -0.2208   0.03560   0.02629  -0.0579   0.9930   0.1754
  -2.900  -0.2001   0.03521   0.02582  -0.0600   0.9896   0.1812
  -2.800  -0.1803   0.03461   0.02502  -0.0619   0.9859   0.1869
  -2.700  -0.1601   0.03428   0.02461  -0.0639   0.9823   0.1938
  -2.600  -0.1419   0.03389   0.02416  -0.0655   0.9783   0.2002
  -2.500  -0.1219   0.03353   0.02360  -0.0674   0.9746   0.2088
  -2.400  -0.1037   0.03329   0.02338  -0.0690   0.9707   0.2168
  -2.300  -0.0864   0.03303   0.02311  -0.0704   0.9664   0.2254
  -2.200  -0.0650   0.03278   0.02281  -0.0725   0.9633   0.2364
  -2.100  -0.0511   0.03256   0.02255  -0.0733   0.9582   0.2461
  -2.000  -0.0315   0.03235   0.02233  -0.0750   0.9546   0.2586
  -1.900  -0.0163   0.03217   0.02217  -0.0760   0.9500   0.2706
  -1.800   0.0010   0.03199   0.02200  -0.0773   0.9458   0.2848
  -1.700   0.0214   0.03180   0.02179  -0.0791   0.9426   0.3030
  -1.600   0.0332   0.03163   0.02170  -0.0795   0.9372   0.3170
  -1.500   0.0526   0.03143   0.02153  -0.0811   0.9337   0.3386
  -1.400   0.0661   0.03125   0.02144  -0.0817   0.9291   0.3582
  -1.300   0.0825   0.03104   0.02130  -0.0827   0.9249   0.3837
  -1.200   0.1034   0.03073   0.02117  -0.0845   0.9220   0.4179
  -1.100   0.1136   0.03054   0.02116  -0.0845   0.9166   0.4473
  -1.000   0.1308   0.03017   0.02112  -0.0856   0.9131   0.4985
  -0.900   0.1485   0.02953   0.02110  -0.0864   0.9107   0.5964
  -0.800   0.1479   0.02894   0.02122  -0.0833   0.9056   0.7305
  -0.700   0.1678   0.02856   0.02090  -0.0842   0.9008   1.0000
  -0.600   0.1794   0.02879   0.02092  -0.0847   0.8951   1.0000
  -0.500   0.1969   0.02898   0.02092  -0.0860   0.8909   1.0000
  -0.400   0.2122   0.02918   0.02097  -0.0869   0.8864   1.0000
  -0.300   0.2243   0.02939   0.02106  -0.0874   0.8811   1.0000
  -0.200   0.2451   0.02953   0.02105  -0.0891   0.8779   1.0000
  -0.100   0.2516   0.02980   0.02124  -0.0887   0.8718   1.0000
   0.000   0.2696   0.02995   0.02128  -0.0900   0.8681   1.0000
   0.100   0.2806   0.03019   0.02143  -0.0902   0.8631   1.0000
   0.200   0.2939   0.03038   0.02154  -0.0908   0.8584   1.0000
   0.400   0.3187   0.03081   0.02182  -0.0916   0.8493   1.0000
   0.500   0.3363   0.03092   0.02185  -0.0928   0.8458   1.0000
   0.600   0.3467   0.03118   0.02204  -0.0929   0.8410   1.0000
   0.700   0.3584   0.03139   0.02220  -0.0931   0.8364   1.0000
   0.800   0.3782   0.03144   0.02218  -0.0946   0.8335   1.0000
   0.900   0.3820   0.03184   0.02254  -0.0937   0.8276   1.0000
   1.000   0.3979   0.03196   0.02260  -0.0946   0.8240   1.0000
   1.200   0.4186   0.03247   0.02303  -0.0947   0.8150   1.0000
   1.300   0.4366   0.03252   0.02303  -0.0958   0.8120   1.0000
   1.400   0.4440   0.03287   0.02334  -0.0954   0.8071   1.0000
   1.500   0.4550   0.03310   0.02354  -0.0956   0.8028   1.0000
   1.600   0.4743   0.03309   0.02348  -0.0968   0.8002   1.0000
   1.700   0.4767   0.03361   0.02398  -0.0958   0.7945   1.0000
   1.800   0.4907   0.03374   0.02409  -0.0963   0.7909   1.0000
   1.900   0.5109   0.03367   0.02398  -0.0975   0.7886   1.0000
   2.000   0.5098   0.03434   0.02463  -0.0962   0.7824   1.0000
   2.100   0.5254   0.03441   0.02468  -0.0968   0.7792   1.0000
   2.200   0.5462   0.03428   0.02452  -0.0981   0.7771   1.0000
   2.300   0.5424   0.03510   0.02533  -0.0964   0.7705   1.0000
   2.400   0.5591   0.03511   0.02532  -0.0972   0.7677   1.0000
   2.500   0.5804   0.03492   0.02512  -0.0984   0.7657   1.0000
   2.600   0.5742   0.03588   0.02606  -0.0965   0.7589   1.0000
   2.700   0.5917   0.03584   0.02601  -0.0973   0.7562   1.0000
   2.800   0.6134   0.03560   0.02576  -0.0985   0.7544   1.0000
   2.900   0.6052   0.03671   0.02686  -0.0965   0.7473   1.0000
   3.000   0.6234   0.03661   0.02676  -0.0973   0.7448   1.0000
   3.100   0.6442   0.03638   0.02652  -0.0984   0.7429   1.0000
   3.200   0.6353   0.03758   0.02772  -0.0964   0.7358   1.0000
   3.300   0.6541   0.03743   0.02757  -0.0972   0.7334   1.0000
   3.500   0.6647   0.03849   0.02863  -0.0961   0.7243   1.0000
   3.600   0.6841   0.03828   0.02843  -0.0969   0.7221   1.0000
   3.800   0.6933   0.03944   0.02959  -0.0957   0.7129   1.0000
   3.900   0.7135   0.03915   0.02931  -0.0965   0.7107   1.0000
   4.100   0.7213   0.04043   0.03061  -0.0952   0.7013   1.0000
   4.200   0.7424   0.04005   0.03025  -0.0961   0.6993   1.0000
   4.400   0.7488   0.04144   0.03166  -0.0947   0.6898   1.0000
   4.500   0.7709   0.04097   0.03121  -0.0955   0.6879   1.0000
   4.700   0.7763   0.04246   0.03272  -0.0940   0.6782   1.0000
   4.800   0.7995   0.04186   0.03216  -0.0949   0.6764   1.0000
   5.000   0.8039   0.04344   0.03377  -0.0933   0.6665   1.0000
   5.100   0.8285   0.04271   0.03308  -0.0942   0.6649   1.0000
   5.300   0.8320   0.04436   0.03477  -0.0926   0.6549   1.0000
   5.400   0.8584   0.04347   0.03392  -0.0935   0.6534   1.0000
   5.500   0.8372   0.04598   0.03642  -0.0913   0.6452   1.0000
   5.600   0.8612   0.04518   0.03567  -0.0919   0.6432   1.0000
   5.700   0.8896   0.04412   0.03466  -0.0929   0.6418   1.0000
   5.800   0.8648   0.04692   0.03745  -0.0904   0.6332   1.0000
   5.900   0.8917   0.04583   0.03643  -0.0911   0.6315   1.0000
   6.100   0.8947   0.04762   0.03826  -0.0896   0.6213   1.0000
   6.200   0.9247   0.04627   0.03697  -0.0904   0.6198   1.0000
   6.400   0.9278   0.04797   0.03873  -0.0887   0.6094   1.0000
   6.500   0.9616   0.04634   0.03718  -0.0898   0.6081   1.0000
   6.800   0.9385   0.05124   0.04212  -0.0860   0.5889   1.0000
   6.900   0.9698   0.04948   0.04044  -0.0864   0.5871   1.0000
   7.000   1.0092   0.04727   0.03833  -0.0876   0.5857   1.0000
   7.200   1.0160   0.04850   0.03964  -0.0859   0.5752   1.0000
   7.500   1.0496   0.04845   0.03976  -0.0846   0.5611   1.0000
   7.700   1.0924   0.04655   0.03798  -0.0847   0.5526   1.0000
   7.800   1.0573   0.05035   0.04178  -0.0817   0.5441   1.0000
   7.900   1.1174   0.04604   0.03760  -0.0837   0.5419   1.0000
   8.000   1.0943   0.04882   0.04038  -0.0813   0.5343   1.0000
   8.100   1.1532   0.04450   0.03617  -0.0833   0.5308   1.0000
   8.200   1.1490   0.04559   0.03731  -0.0817   0.5241   1.0000
   8.300   1.2052   0.04154   0.03330  -0.0839   0.5186   1.0000
   8.400   1.1940   0.04309   0.03492  -0.0817   0.5115   1.0000
   8.500   1.2294   0.04079   0.03264  -0.0826   0.5044   1.0000
   8.600   1.2502   0.03967   0.03154  -0.0826   0.4966   1.0000
   8.700   1.2518   0.04007   0.03201  -0.0812   0.4890   1.0000
   8.800   1.2715   0.03903   0.03098  -0.0811   0.4808   1.0000
   8.900   1.2945   0.03774   0.02965  -0.0813   0.4718   1.0000
   9.000   1.3031   0.03752   0.02947  -0.0804   0.4631   1.0000
   9.100   1.3079   0.03758   0.02959  -0.0791   0.4545   1.0000
   9.200   1.3182   0.03720   0.02922  -0.0783   0.4452   1.0000
   9.300   1.3295   0.03673   0.02875  -0.0776   0.4355   1.0000
   9.400   1.3398   0.03629   0.02830  -0.0767   0.4255   1.0000
   9.500   1.3485   0.03594   0.02795  -0.0757   0.4151   1.0000
   9.600   1.3553   0.03570   0.02771  -0.0745   0.4044   1.0000
   9.700   1.3600   0.03556   0.02758  -0.0731   0.3936   1.0000
   9.800   1.3632   0.03551   0.02753  -0.0716   0.3824   1.0000
   9.900   1.3651   0.03551   0.02754  -0.0698   0.3710   1.0000
  10.000   1.3660   0.03558   0.02760  -0.0680   0.3591   1.0000
  10.100   1.3662   0.03570   0.02769  -0.0662   0.3469   1.0000
  10.200   1.3660   0.03585   0.02779  -0.0643   0.3343   1.0000
  10.300   1.3659   0.03602   0.02786  -0.0624   0.3212   1.0000
  10.400   1.3643   0.03629   0.02803  -0.0603   0.3086   1.0000
  10.500   1.3603   0.03681   0.02849  -0.0581   0.2965   1.0000
  10.600   1.3565   0.03739   0.02900  -0.0561   0.2843   1.0000
  10.700   1.3532   0.03803   0.02954  -0.0542   0.2722   1.0000
  10.800   1.3504   0.03873   0.03014  -0.0524   0.2603   1.0000
  10.900   1.3481   0.03948   0.03077  -0.0508   0.2489   1.0000
  11.000   1.3461   0.04028   0.03146  -0.0492   0.2380   1.0000
  11.100   1.3444   0.04113   0.03221  -0.0478   0.2278   1.0000
  11.200   1.3433   0.04202   0.03301  -0.0465   0.2182   1.0000
  11.300   1.3430   0.04291   0.03383  -0.0453   0.2092   1.0000
  11.400   1.3436   0.04380   0.03463  -0.0442   0.2007   1.0000
  11.500   1.3460   0.04465   0.03536  -0.0433   0.1925   1.0000
  11.600   1.3508   0.04543   0.03598  -0.0426   0.1844   1.0000
  11.700   1.3498   0.04646   0.03710  -0.0415   0.1782   1.0000
  11.800   1.3541   0.04733   0.03789  -0.0408   0.1716   1.0000
  11.900   1.3635   0.04805   0.03844  -0.0405   0.1643   1.0000
  12.000   1.3625   0.04913   0.03965  -0.0394   0.1598   1.0000
  12.100   1.3728   0.04989   0.04027  -0.0392   0.1536   1.0000
  12.200   1.3741   0.05092   0.04140  -0.0383   0.1495   1.0000
  12.300   1.3865   0.05172   0.04206  -0.0383   0.1439   1.0000
  12.400   1.3866   0.05280   0.04328  -0.0374   0.1407   1.0000
  12.500   1.4046   0.05357   0.04385  -0.0378   0.1351   1.0000
  12.600   1.4022   0.05475   0.04521  -0.0367   0.1329   1.0000
  12.700   1.4057   0.05578   0.04633  -0.0361   0.1298   1.0000
  12.800   1.4229   0.05671   0.04711  -0.0366   0.1254   1.0000
  12.900   1.4195   0.05794   0.04853  -0.0354   0.1238   1.0000
  13.000   1.4200   0.05913   0.04984  -0.0346   0.1218   1.0000
  13.100   1.4476   0.06005   0.05051  -0.0360   0.1169   1.0000
  13.200   1.4410   0.06132   0.05198  -0.0346   0.1161   1.0000
  13.300   1.4355   0.06265   0.05349  -0.0334   0.1151   1.0000
  13.400   1.4312   0.06401   0.05500  -0.0324   0.1141   1.0000
  13.500   1.4288   0.06536   0.05648  -0.0315   0.1129   1.0000
  13.600   1.4307   0.06661   0.05781  -0.0310   0.1113   1.0000
  13.700   1.4571   0.06766   0.05868  -0.0320   0.1077   1.0000
  13.800   1.4485   0.06911   0.06030  -0.0308   0.1073   1.0000
  13.900   1.4402   0.07064   0.06200  -0.0297   0.1070   1.0000
  14.000   1.4316   0.07224   0.06375  -0.0288   0.1066   1.0000
  14.100   1.4230   0.07391   0.06556  -0.0279   0.1063   1.0000
  14.200   1.4143   0.07565   0.06745  -0.0272   0.1060   1.0000
  14.300   1.4052   0.07746   0.06940  -0.0266   0.1057   1.0000
  14.400   1.3957   0.07936   0.07143  -0.0261   0.1055   1.0000
  14.500   1.3859   0.08136   0.07356  -0.0258   0.1053   1.0000
  14.600   1.3756   0.08345   0.07577  -0.0256   0.1052   1.0000
  14.700   1.3646   0.08566   0.07811  -0.0255   0.1052   1.0000
  14.800   1.3531   0.08800   0.08057  -0.0256   0.1052   1.0000
  14.900   1.3409   0.09047   0.08316  -0.0258   0.1053   1.0000
  15.000   1.3282   0.09310   0.08589  -0.0263   0.1055   1.0000
  15.100   1.3152   0.09586   0.08876  -0.0269   0.1057   1.0000
  15.200   1.3019   0.09877   0.09177  -0.0278   0.1060   1.0000
  15.300   1.2882   0.10185   0.09494  -0.0288   0.1063   1.0000
  15.400   1.2746   0.10506   0.09823  -0.0300   0.1067   1.0000
  15.500   1.2608   0.10844   0.10169  -0.0315   0.1070   1.0000
  15.600   1.2474   0.11192   0.10525  -0.0331   0.1074   1.0000
  15.700   1.2344   0.11552   0.10891  -0.0348   0.1077   1.0000
