  
       XFOIL         Version 6.99
  
 Calculated polar for: NACA 4412                                       
  
 1 1 Reynolds number fixed          Mach number fixed         
  
 xtrf =   1.000 (top)        1.000 (bottom)  
 Mach =   0.000     Re =     0.070 e 6     Ncrit =   9.000
  
   alpha    CL        CD       CDp       CM     Top_Xtr  Bot_Xtr
  ------ -------- --------- --------- -------- -------- --------
 -10.000  -0.3234   0.11918   0.11291  -0.0369   1.0000   0.1488
  -9.900  -0.3304   0.11882   0.11259  -0.0376   1.0000   0.1504
  -9.800  -0.3412   0.11877   0.11261  -0.0385   1.0000   0.1512
  -9.700  -0.3424   0.11750   0.11138  -0.0385   1.0000   0.1518
  -9.600  -0.3251   0.11484   0.10867  -0.0370   1.0000   0.1539
  -9.500  -0.3211   0.11363   0.10747  -0.0365   1.0000   0.1559
  -9.400  -0.3208   0.11267   0.10654  -0.0363   1.0000   0.1580
  -9.300  -0.3243   0.11198   0.10588  -0.0364   1.0000   0.1601
  -9.200  -0.3339   0.11175   0.10571  -0.0368   1.0000   0.1616
  -9.100  -0.3468   0.11175   0.10579  -0.0373   1.0000   0.1622
  -9.000  -0.3442   0.11009   0.10416  -0.0368   1.0000   0.1631
  -8.900  -0.3300   0.10790   0.10193  -0.0356   1.0000   0.1649
  -8.800  -0.3263   0.10674   0.10078  -0.0350   1.0000   0.1669
  -8.700  -0.3269   0.10588   0.09994  -0.0345   1.0000   0.1690
  -8.600  -0.3320   0.10528   0.09939  -0.0342   1.0000   0.1711
  -8.500  -0.3432   0.10510   0.09927  -0.0341   1.0000   0.1726
  -8.400  -0.3574   0.10511   0.09937  -0.0338   1.0000   0.1733
  -8.300  -0.3725   0.10517   0.09951  -0.0332   1.0000   0.1736
  -8.200  -0.3434   0.10173   0.09600  -0.0321   1.0000   0.1765
  -8.100  -0.3411   0.10077   0.09504  -0.0312   1.0000   0.1789
  -8.000  -0.3452   0.10014   0.09446  -0.0304   1.0000   0.1811
  -7.900  -0.3545   0.09981   0.09418  -0.0297   1.0000   0.1828
  -7.800  -0.3679   0.09974   0.09418  -0.0288   1.0000   0.1839
  -7.700  -0.3829   0.09976   0.09427  -0.0276   1.0000   0.1844
  -7.600  -0.3982   0.09976   0.09435  -0.0263   1.0000   0.1847
  -7.500  -0.4135   0.09963   0.09430  -0.0257   1.0000   0.1849
  -7.400  -0.3738   0.09599   0.09055  -0.0247   1.0000   0.1896
  -7.300  -0.3786   0.09542   0.09002  -0.0236   1.0000   0.1914
  -7.200  -0.3878   0.09508   0.08973  -0.0223   1.0000   0.1929
  -7.100  -0.4002   0.09487   0.08958  -0.0210   1.0000   0.1941
  -7.000  -0.4149   0.09463   0.08941  -0.0207   1.0000   0.1953
  -6.900  -0.4320   0.09429   0.08914  -0.0215   1.0000   0.1961
  -6.700  -0.4220   0.09159   0.08647  -0.0182   1.0000   0.1991
  -6.600  -0.4211   0.09071   0.08560  -0.0170   1.0000   0.2011
  -6.500  -0.4249   0.08996   0.08488  -0.0164   1.0000   0.2033
  -6.400  -0.4346   0.08929   0.08426  -0.0168   1.0000   0.2060
  -6.300  -0.4558   0.08855   0.08357  -0.0208   1.0000   0.2081
  -6.200  -0.4484   0.08717   0.08220  -0.0178   1.0000   0.2091
  -6.100  -0.4436   0.08619   0.08123  -0.0157   1.0000   0.2109
  -6.000  -0.4427   0.08536   0.08042  -0.0145   1.0000   0.2134
  -5.900  -0.4476   0.08448   0.07956  -0.0150   1.0000   0.2170
  -5.800  -0.4587   0.08311   0.07820  -0.0185   1.0000   0.2202
  -5.700  -0.4540   0.08212   0.07724  -0.0157   1.0000   0.2216
  -5.600  -0.4515   0.08132   0.07645  -0.0141   1.0000   0.2241
  -5.500  -0.4535   0.08039   0.07553  -0.0146   1.0000   0.2286
  -5.400  -0.4579   0.07888   0.07402  -0.0169   1.0000   0.2324
  -5.300  -0.4549   0.07803   0.07319  -0.0147   1.0000   0.2343
  -5.200  -0.4533   0.07720   0.07237  -0.0138   1.0000   0.2374
  -5.000  -0.4535   0.07475   0.06992  -0.0152   1.0000   0.2457
  -4.900  -0.4513   0.07390   0.06908  -0.0142   1.0000   0.2486
  -4.800  -0.4510   0.07240   0.06753  -0.0171   1.0000   0.2560
  -4.700  -0.4484   0.07150   0.06667  -0.0154   1.0000   0.2579
  -4.600  -0.4458   0.07066   0.06584  -0.0148   1.0000   0.2622
  -4.500  -0.4436   0.06931   0.06446  -0.0162   1.0000   0.2689
  -4.400  -0.4408   0.06852   0.06369  -0.0150   1.0000   0.2722
  -4.100  -0.4073   0.06443   0.05951  -0.0200   0.9935   0.2975
  -3.900  -0.3780   0.06156   0.05657  -0.0240   0.9866   0.3190
  -3.800  -0.2842   0.03720   0.02883  -0.0584   0.9914   0.1395
  -3.700  -0.2639   0.03618   0.02763  -0.0606   0.9888   0.1421
  -3.600  -0.2470   0.03571   0.02715  -0.0621   0.9851   0.1454
  -3.500  -0.2263   0.03482   0.02594  -0.0642   0.9823   0.1493
  -3.400  -0.2078   0.03404   0.02497  -0.0659   0.9790   0.1530
  -3.300  -0.1903   0.03368   0.02461  -0.0674   0.9753   0.1574
  -3.200  -0.1684   0.03295   0.02351  -0.0695   0.9728   0.1629
  -3.100  -0.1542   0.03266   0.02334  -0.0704   0.9683   0.1672
  -3.000  -0.1341   0.03215   0.02252  -0.0722   0.9651   0.1736
  -2.900  -0.1172   0.03185   0.02235  -0.0736   0.9616   0.1792
  -2.800  -0.1006   0.03145   0.02176  -0.0747   0.9575   0.1860
  -2.700  -0.0813   0.03118   0.02151  -0.0764   0.9544   0.1936
  -2.600  -0.0662   0.03089   0.02120  -0.0774   0.9502   0.2007
  -2.500  -0.0490   0.03060   0.02084  -0.0786   0.9463   0.2095
  -2.400  -0.0285   0.03034   0.02053  -0.0804   0.9435   0.2203
  -2.300  -0.0165   0.03016   0.02039  -0.0808   0.9384   0.2285
  -2.200   0.0013   0.02992   0.02016  -0.0822   0.9348   0.2399
  -2.100   0.0213   0.02968   0.01990  -0.0839   0.9320   0.2539
  -2.000   0.0322   0.02951   0.01979  -0.0840   0.9265   0.2643
  -1.900   0.0510   0.02926   0.01958  -0.0855   0.9233   0.2800
  -1.800   0.0656   0.02907   0.01946  -0.0863   0.9191   0.2947
  -1.700   0.0798   0.02888   0.01931  -0.0869   0.9146   0.3115
  -1.600   0.0989   0.02859   0.01912  -0.0884   0.9117   0.3330
  -1.500   0.1105   0.02842   0.01903  -0.0886   0.9068   0.3521
  -1.400   0.1261   0.02814   0.01887  -0.0894   0.9029   0.3772
  -1.300   0.1461   0.02777   0.01868  -0.0910   0.9004   0.4120
  -1.200   0.1562   0.02758   0.01866  -0.0909   0.8951   0.4438
  -1.100   0.1720   0.02716   0.01858  -0.0917   0.8916   0.4967
  -1.000   0.1880   0.02646   0.01852  -0.0921   0.8895   0.6062
  -0.900   0.1881   0.02587   0.01866  -0.0888   0.8849   0.7746
  -0.800   0.2109   0.02559   0.01836  -0.0904   0.8803   1.0000
  -0.700   0.2331   0.02562   0.01816  -0.0924   0.8777   1.0000
  -0.600   0.2399   0.02583   0.01826  -0.0919   0.8711   1.0000
  -0.500   0.2593   0.02586   0.01814  -0.0934   0.8679   1.0000
  -0.400   0.2706   0.02601   0.01819  -0.0935   0.8628   1.0000
  -0.300   0.2853   0.02609   0.01817  -0.0942   0.8584   1.0000
  -0.200   0.3061   0.02606   0.01803  -0.0958   0.8559   1.0000
  -0.100   0.3125   0.02630   0.01820  -0.0952   0.8496   1.0000
   0.000   0.3302   0.02631   0.01812  -0.0963   0.8463   1.0000
   0.100   0.3519   0.02623   0.01795  -0.0981   0.8442   1.0000
   0.200   0.3551   0.02655   0.01822  -0.0969   0.8372   1.0000
   0.300   0.3745   0.02649   0.01808  -0.0983   0.8345   1.0000
   0.500   0.3977   0.02675   0.01823  -0.0985   0.8253   1.0000
   0.600   0.4180   0.02665   0.01806  -0.0999   0.8230   1.0000
   0.700   0.4247   0.02691   0.01828  -0.0994   0.8174   1.0000
   0.800   0.4397   0.02693   0.01826  -0.1000   0.8137   1.0000
   0.900   0.4590   0.02679   0.01806  -0.1011   0.8116   1.0000
   1.000   0.4643   0.02713   0.01837  -0.1003   0.8056   1.0000
   1.100   0.4793   0.02712   0.01831  -0.1009   0.8023   1.0000
   1.200   0.4981   0.02696   0.01811  -0.1019   0.8002   1.0000
   1.300   0.5022   0.02736   0.01848  -0.1009   0.7940   1.0000
   1.400   0.5174   0.02732   0.01841  -0.1015   0.7909   1.0000
   1.500   0.5359   0.02714   0.01819  -0.1024   0.7889   1.0000
   1.600   0.5391   0.02760   0.01863  -0.1014   0.7826   1.0000
   1.700   0.5543   0.02755   0.01855  -0.1018   0.7796   1.0000
   1.800   0.5725   0.02736   0.01833  -0.1027   0.7776   1.0000
   1.900   0.5752   0.02787   0.01882  -0.1016   0.7714   1.0000
   2.000   0.5900   0.02782   0.01875  -0.1020   0.7684   1.0000
   2.100   0.6080   0.02761   0.01852  -0.1028   0.7664   1.0000
   2.200   0.6104   0.02815   0.01905  -0.1017   0.7602   1.0000
   2.300   0.6248   0.02811   0.01899  -0.1020   0.7572   1.0000
   2.400   0.6425   0.02790   0.01876  -0.1027   0.7552   1.0000
   2.500   0.6449   0.02847   0.01932  -0.1017   0.7492   1.0000
   2.600   0.6587   0.02845   0.01929  -0.1019   0.7461   1.0000
   2.700   0.6762   0.02823   0.01906  -0.1025   0.7441   1.0000
   2.800   0.6788   0.02882   0.01964  -0.1016   0.7383   1.0000
   2.900   0.6918   0.02883   0.01964  -0.1017   0.7350   1.0000
   3.000   0.7091   0.02860   0.01940  -0.1022   0.7330   1.0000
   3.100   0.7123   0.02918   0.01999  -0.1013   0.7274   1.0000
   3.200   0.7243   0.02924   0.02005  -0.1013   0.7240   1.0000
   3.300   0.7414   0.02901   0.01981  -0.1018   0.7219   1.0000
   3.500   0.7563   0.02968   0.02049  -0.1009   0.7129   1.0000
   3.600   0.7732   0.02945   0.02026  -0.1014   0.7108   1.0000
   3.800   0.7878   0.03014   0.02097  -0.1004   0.7019   1.0000
   3.900   0.8046   0.02991   0.02074  -0.1008   0.6996   1.0000
   4.100   0.8190   0.03063   0.02148  -0.0999   0.6908   1.0000
   4.200   0.8357   0.03039   0.02125  -0.1002   0.6885   1.0000
   4.300   0.8539   0.03007   0.02093  -0.1008   0.6866   1.0000
   4.400   0.8499   0.03113   0.02203  -0.0992   0.6796   1.0000
   4.500   0.8667   0.03088   0.02178  -0.0996   0.6773   1.0000
   4.600   0.8836   0.03062   0.02154  -0.1000   0.6750   1.0000
   4.700   0.8807   0.03163   0.02259  -0.0986   0.6684   1.0000
   4.800   0.8977   0.03135   0.02231  -0.0989   0.6660   1.0000
   5.000   0.9114   0.03213   0.02314  -0.0979   0.6570   1.0000
   5.100   0.9289   0.03181   0.02283  -0.0982   0.6546   1.0000
   5.300   0.9424   0.03259   0.02368  -0.0971   0.6455   1.0000
   5.400   0.9606   0.03221   0.02330  -0.0976   0.6431   1.0000
   5.500   0.9638   0.03284   0.02398  -0.0967   0.6380   1.0000
   5.600   0.9738   0.03300   0.02416  -0.0964   0.6339   1.0000
   5.700   0.9931   0.03254   0.02371  -0.0969   0.6315   1.0000
   5.900   1.0061   0.03332   0.02458  -0.0956   0.6221   1.0000
   6.000   1.0270   0.03274   0.02400  -0.0963   0.6198   1.0000
   6.100   1.0229   0.03385   0.02517  -0.0947   0.6132   1.0000
   6.200   1.0400   0.03350   0.02484  -0.0950   0.6100   1.0000
   6.300   1.0567   0.03319   0.02456  -0.0952   0.6069   1.0000
   6.400   1.0556   0.03407   0.02549  -0.0939   0.6007   1.0000
   6.500   1.0764   0.03346   0.02489  -0.0944   0.5978   1.0000
   6.600   1.0764   0.03427   0.02576  -0.0932   0.5919   1.0000
   6.700   1.0918   0.03400   0.02551  -0.0932   0.5879   1.0000
   6.800   1.1106   0.03351   0.02504  -0.0936   0.5844   1.0000
   6.900   1.1098   0.03432   0.02593  -0.0922   0.5781   1.0000
   7.000   1.1328   0.03352   0.02511  -0.0930   0.5748   1.0000
   7.100   1.1310   0.03438   0.02606  -0.0915   0.5683   1.0000
   7.200   1.1517   0.03370   0.02537  -0.0920   0.5642   1.0000
   7.300   1.1546   0.03422   0.02596  -0.0909   0.5582   1.0000
   7.400   1.1727   0.03368   0.02542  -0.0911   0.5534   1.0000
   7.500   1.1786   0.03396   0.02576  -0.0902   0.5474   1.0000
   7.600   1.1962   0.03341   0.02521  -0.0903   0.5419   1.0000
   7.700   1.2016   0.03369   0.02554  -0.0894   0.5356   1.0000
   7.800   1.2219   0.03293   0.02476  -0.0898   0.5299   1.0000
   7.900   1.2247   0.03333   0.02524  -0.0885   0.5230   1.0000
   8.000   1.2449   0.03258   0.02444  -0.0889   0.5169   1.0000
   8.100   1.2493   0.03282   0.02475  -0.0878   0.5097   1.0000
   8.200   1.2599   0.03267   0.02462  -0.0872   0.5028   1.0000
   8.300   1.2771   0.03207   0.02398  -0.0873   0.4958   1.0000
   8.400   1.2800   0.03237   0.02436  -0.0860   0.4882   1.0000
   8.500   1.2914   0.03213   0.02412  -0.0855   0.4808   1.0000
   8.600   1.3062   0.03167   0.02361  -0.0854   0.4732   1.0000
   8.700   1.3094   0.03189   0.02392  -0.0840   0.4652   1.0000
   8.800   1.3179   0.03179   0.02384  -0.0832   0.4572   1.0000
   8.900   1.3299   0.03147   0.02349  -0.0828   0.4490   1.0000
   9.000   1.3371   0.03139   0.02343  -0.0818   0.4405   1.0000
   9.100   1.3414   0.03149   0.02358  -0.0806   0.4317   1.0000
   9.200   1.3476   0.03144   0.02356  -0.0795   0.4228   1.0000
   9.300   1.3543   0.03135   0.02347  -0.0784   0.4136   1.0000
   9.400   1.3605   0.03125   0.02337  -0.0773   0.4041   1.0000
   9.500   1.3656   0.03119   0.02331  -0.0761   0.3942   1.0000
   9.600   1.3693   0.03119   0.02332  -0.0746   0.3840   1.0000
   9.700   1.3711   0.03128   0.02343  -0.0730   0.3735   1.0000
   9.800   1.3727   0.03138   0.02352  -0.0713   0.3625   1.0000
   9.900   1.3729   0.03155   0.02370  -0.0695   0.3511   1.0000
  10.000   1.3719   0.03181   0.02395  -0.0676   0.3393   1.0000
  10.100   1.3702   0.03212   0.02424  -0.0656   0.3270   1.0000
  10.200   1.3676   0.03247   0.02455  -0.0635   0.3148   1.0000
  10.300   1.3644   0.03288   0.02490  -0.0613   0.3026   1.0000
  10.400   1.3612   0.03336   0.02529  -0.0592   0.2901   1.0000
  10.500   1.3581   0.03393   0.02574  -0.0573   0.2776   1.0000
  10.600   1.3539   0.03465   0.02637  -0.0553   0.2650   1.0000
  10.700   1.3498   0.03543   0.02708  -0.0535   0.2527   1.0000
  10.800   1.3461   0.03626   0.02781  -0.0518   0.2410   1.0000
  10.900   1.3429   0.03713   0.02857  -0.0502   0.2299   1.0000
  11.000   1.3401   0.03803   0.02938  -0.0488   0.2194   1.0000
  11.100   1.3379   0.03896   0.03021  -0.0474   0.2096   1.0000
  11.200   1.3363   0.03989   0.03104  -0.0462   0.2005   1.0000
  11.300   1.3357   0.04080   0.03185  -0.0451   0.1920   1.0000
  11.400   1.3366   0.04167   0.03258  -0.0440   0.1840   1.0000
  11.500   1.3364   0.04261   0.03351  -0.0430   0.1766   1.0000
  11.600   1.3373   0.04354   0.03440  -0.0421   0.1697   1.0000
  11.700   1.3409   0.04435   0.03509  -0.0413   0.1631   1.0000
  11.800   1.3430   0.04522   0.03595  -0.0405   0.1571   1.0000
  11.900   1.3466   0.04609   0.03679  -0.0398   0.1514   1.0000
  12.000   1.3559   0.04674   0.03721  -0.0395   0.1452   1.0000
  12.100   1.3559   0.04775   0.03839  -0.0386   0.1411   1.0000
  12.200   1.3679   0.04836   0.03877  -0.0384   0.1354   1.0000
  12.300   1.3677   0.04939   0.03997  -0.0375   0.1321   1.0000
  12.400   1.3771   0.05009   0.04057  -0.0372   0.1276   1.0000
  12.500   1.3835   0.05102   0.04153  -0.0368   0.1240   1.0000
  12.600   1.3871   0.05194   0.04252  -0.0361   0.1208   1.0000
  12.700   1.4043   0.05263   0.04303  -0.0364   0.1164   1.0000
  12.800   1.4039   0.05372   0.04430  -0.0355   0.1144   1.0000
  12.900   1.4077   0.05471   0.04536  -0.0349   0.1119   1.0000
  13.000   1.4295   0.05545   0.04587  -0.0357   0.1077   1.0000
  13.100   1.4262   0.05661   0.04724  -0.0346   0.1065   1.0000
  13.200   1.4257   0.05777   0.04854  -0.0338   0.1049   1.0000
  13.300   1.4298   0.05882   0.04968  -0.0332   0.1030   1.0000
  13.400   1.4573   0.05969   0.05030  -0.0345   0.0991   1.0000
  13.500   1.4518   0.06092   0.05172  -0.0333   0.0985   1.0000
  13.600   1.4471   0.06220   0.05319  -0.0322   0.0977   1.0000
  13.700   1.4437   0.06352   0.05466  -0.0313   0.0968   1.0000
  13.800   1.4411   0.06484   0.05612  -0.0304   0.0958   1.0000
  13.900   1.4404   0.06615   0.05754  -0.0298   0.0948   1.0000
  14.000   1.4433   0.06732   0.05877  -0.0293   0.0935   1.0000
  14.100   1.4716   0.06829   0.05952  -0.0304   0.0906   1.0000
  14.200   1.4637   0.06973   0.06113  -0.0293   0.0903   1.0000
  14.300   1.4557   0.07123   0.06279  -0.0284   0.0900   1.0000
  14.400   1.4474   0.07281   0.06452  -0.0275   0.0898   1.0000
  14.500   1.4391   0.07445   0.06631  -0.0267   0.0895   1.0000
  14.600   1.4307   0.07616   0.06817  -0.0261   0.0893   1.0000
  14.700   1.4220   0.07795   0.07009  -0.0256   0.0891   1.0000
  14.800   1.4131   0.07981   0.07209  -0.0252   0.0889   1.0000
  14.900   1.4036   0.08175   0.07416  -0.0249   0.0888   1.0000
  15.000   1.3940   0.08378   0.07632  -0.0247   0.0887   1.0000
  15.100   1.3840   0.08590   0.07856  -0.0246   0.0886   1.0000
  15.200   1.3737   0.08811   0.08090  -0.0247   0.0886   1.0000
  15.300   1.3628   0.09044   0.08335  -0.0250   0.0886   1.0000
  15.400   1.3516   0.09288   0.08589  -0.0253   0.0887   1.0000
  15.500   1.3399   0.09543   0.08856  -0.0259   0.0888   1.0000
  15.600   1.3281   0.09810   0.09133  -0.0266   0.0889   1.0000
  15.700   1.3158   0.10090   0.09423  -0.0275   0.0891   1.0000
  15.800   1.3035   0.10381   0.09724  -0.0286   0.0893   1.0000
  15.900   1.2911   0.10685   0.10037  -0.0298   0.0895   1.0000
  16.000   1.2789   0.10999   0.10360  -0.0312   0.0898   1.0000
  16.100   1.2663   0.11330   0.10699  -0.0328   0.0900   1.0000
  16.200   1.2544   0.11668   0.11044  -0.0345   0.0903   1.0000
  16.300   1.2426   0.12018   0.11401  -0.0363   0.0905   1.0000
  16.400   1.2316   0.12374   0.11762  -0.0382   0.0907   1.0000
  16.700   0.9871   0.20724   0.20093  -0.0992   0.1941   1.0000
  16.800   0.9802   0.20812   0.20178  -0.1014   0.1919   1.0000
  16.900   0.9815   0.20933   0.20300  -0.1023   0.1891   1.0000
  17.000   0.9877   0.21073   0.20441  -0.1023   0.1868   1.0000
  17.100   1.0005   0.21294   0.20668  -0.1013   0.1850   1.0000
  17.200   1.0019   0.21467   0.20839  -0.1023   0.1843   1.0000
  17.300   0.9935   0.21524   0.20892  -0.1049   0.1824   1.0000
  17.400   0.9937   0.21636   0.21004  -0.1060   0.1797   1.0000
  17.500   0.9989   0.21768   0.21138  -0.1062   0.1772   1.0000
  17.600   1.0099   0.21967   0.21342  -0.1054   0.1753   1.0000
  17.700   1.0155   0.22180   0.21555  -0.1057   0.1744   1.0000
  17.800   1.0069   0.22211   0.21583  -0.1085   0.1727   1.0000
  17.900   1.0070   0.22315   0.21686  -0.1097   0.1698   1.0000
  18.000   1.0114   0.22445   0.21818  -0.1101   0.1677   1.0000
  18.100   1.0189   0.22611   0.21986  -0.1099   0.1660   1.0000
  18.200   1.0335   0.22934   0.22313  -0.1084   0.1647   1.0000
  18.300   1.0237   0.22922   0.22297  -0.1116   0.1637   1.0000
  18.400   1.0208   0.22993   0.22366  -0.1136   0.1611   1.0000
  18.500   1.0240   0.23111   0.22485  -0.1142   0.1587   1.0000
  18.600   1.0304   0.23257   0.22633  -0.1141   0.1567   1.0000
  18.700   1.0423   0.23519   0.22900  -0.1130   0.1552   1.0000
  18.800   1.0418   0.23641   0.23020  -0.1145   0.1545   1.0000
  18.900   1.0360   0.23664   0.23040  -0.1172   0.1526   1.0000
  19.000   1.0374   0.23770   0.23146  -0.1184   0.1502   1.0000
  19.100   1.0416   0.23897   0.23274  -0.1188   0.1482   1.0000
  19.200   1.0484   0.24057   0.23437  -0.1186   0.1466   1.0000
  19.400   1.0552   0.24382   0.23762  -0.1200   0.1445   1.0000
  19.500   1.0522   0.24428   0.23806  -0.1222   0.1423   1.0000
  19.600   1.0546   0.24537   0.23916  -0.1232   0.1400   1.0000
  19.700   1.0592   0.24666   0.24046  -0.1235   0.1382   1.0000
  19.800   1.0663   0.24840   0.24223  -0.1232   0.1368   1.0000
  19.900   1.0781   0.25173   0.24561  -0.1220   0.1358   1.0000
  20.000   1.0732   0.25172   0.24555  -0.1246   0.1351   1.0000
