  
       XFOIL         Version 6.99
  
 Calculated polar for: NACA 4412                                       
  
 1 1 Reynolds number fixed          Mach number fixed         
  
 xtrf =   1.000 (top)        1.000 (bottom)  
 Mach =   0.000     Re =     0.080 e 6     Ncrit =   9.000
  
   alpha    CL        CD       CDp       CM     Top_Xtr  Bot_Xtr
  ------ -------- --------- --------- -------- -------- --------
 -10.000  -0.3394   0.11848   0.11267  -0.0396   1.0000   0.1306
  -9.900  -0.3285   0.11651   0.11068  -0.0384   1.0000   0.1318
  -9.800  -0.3235   0.11523   0.10940  -0.0379   1.0000   0.1333
  -9.700  -0.3216   0.11417   0.10836  -0.0376   1.0000   0.1350
  -9.600  -0.3222   0.11326   0.10747  -0.0376   1.0000   0.1369
  -9.500  -0.3268   0.11258   0.10683  -0.0379   1.0000   0.1387
  -9.400  -0.3372   0.11230   0.10661  -0.0387   1.0000   0.1399
  -9.300  -0.3497   0.11214   0.10652  -0.0394   1.0000   0.1404
  -9.200  -0.3456   0.11032   0.10472  -0.0388   1.0000   0.1412
  -9.100  -0.3295   0.10821   0.10257  -0.0372   1.0000   0.1431
  -9.000  -0.3262   0.10713   0.10150  -0.0366   1.0000   0.1449
  -8.900  -0.3266   0.10624   0.10065  -0.0362   1.0000   0.1468
  -8.800  -0.3306   0.10553   0.09997  -0.0360   1.0000   0.1486
  -8.700  -0.3401   0.10515   0.09964  -0.0361   1.0000   0.1501
  -8.600  -0.3538   0.10502   0.09959  -0.0360   1.0000   0.1509
  -8.500  -0.3684   0.10495   0.09960  -0.0358   1.0000   0.1512
  -8.400  -0.3831   0.10488   0.09960  -0.0351   1.0000   0.1514
  -8.200  -0.3451   0.10014   0.09477  -0.0328   1.0000   0.1554
  -8.100  -0.3468   0.09937   0.09403  -0.0320   1.0000   0.1570
  -8.000  -0.3518   0.09875   0.09345  -0.0313   1.0000   0.1587
  -7.900  -0.3607   0.09834   0.09309  -0.0305   1.0000   0.1601
  -7.800  -0.3737   0.09817   0.09299  -0.0295   1.0000   0.1611
  -7.700  -0.3891   0.09814   0.09303  -0.0284   1.0000   0.1616
  -7.600  -0.4052   0.09813   0.09309  -0.0271   1.0000   0.1620
  -7.500  -0.4218   0.09791   0.09295  -0.0270   1.0000   0.1623
  -7.300  -0.3997   0.09449   0.08951  -0.0240   1.0000   0.1652
  -7.200  -0.3992   0.09370   0.08873  -0.0228   1.0000   0.1670
  -7.100  -0.4049   0.09315   0.08822  -0.0216   1.0000   0.1685
  -7.000  -0.4124   0.09257   0.08769  -0.0208   1.0000   0.1699
  -6.900  -0.4228   0.09198   0.08714  -0.0207   1.0000   0.1715
  -6.800  -0.4378   0.09134   0.08656  -0.0219   1.0000   0.1728
  -6.700  -0.4573   0.09039   0.08565  -0.0254   1.0000   0.1737
  -6.600  -0.4482   0.08902   0.08430  -0.0219   1.0000   0.1747
  -6.500  -0.4410   0.08813   0.08342  -0.0192   1.0000   0.1763
  -6.400  -0.4400   0.08734   0.08264  -0.0180   1.0000   0.1782
  -6.300  -0.4427   0.08650   0.08183  -0.0176   1.0000   0.1804
  -6.200  -0.4518   0.08549   0.08083  -0.0193   1.0000   0.1835
  -6.100  -0.4635   0.08380   0.07915  -0.0232   1.0000   0.1855
  -6.000  -0.4589   0.08287   0.07825  -0.0203   1.0000   0.1865
  -5.900  -0.4561   0.08208   0.07749  -0.0184   1.0000   0.1879
  -5.800  -0.4553   0.08125   0.07666  -0.0174   1.0000   0.1899
  -5.700  -0.4566   0.08023   0.07566  -0.0178   1.0000   0.1929
  -5.600  -0.4632   0.07823   0.07362  -0.0223   1.0000   0.1973
  -5.500  -0.4607   0.07733   0.07274  -0.0204   1.0000   0.1983
  -5.400  -0.4585   0.07651   0.07195  -0.0190   1.0000   0.1998
  -5.300  -0.4570   0.07566   0.07110  -0.0183   1.0000   0.2023
  -5.200  -0.4583   0.07365   0.06901  -0.0229   1.0000   0.2089
  -5.100  -0.4559   0.07283   0.06824  -0.0209   1.0000   0.2101
  -5.000  -0.4534   0.07210   0.06752  -0.0196   1.0000   0.2123
  -4.900  -0.4400   0.06987   0.06521  -0.0246   0.9972   0.2212
  -4.800  -0.4271   0.06875   0.06410  -0.0246   0.9947   0.2247
  -4.600  -0.3970   0.06531   0.06056  -0.0303   0.9883   0.2383
  -4.500  -0.3609   0.05435   0.04886  -0.0480   0.9855   0.1771
  -4.400  -0.3469   0.05425   0.04880  -0.0487   0.9823   0.1899
  -4.300  -0.3064   0.03736   0.02953  -0.0619   0.9859   0.1204
  -4.200  -0.2891   0.03684   0.02905  -0.0634   0.9829   0.1227
  -4.100  -0.2706   0.03587   0.02789  -0.0652   0.9803   0.1248
  -4.000  -0.2533   0.03478   0.02650  -0.0668   0.9770   0.1274
  -3.900  -0.2333   0.03355   0.02480  -0.0687   0.9746   0.1302
  -3.800  -0.2162   0.03317   0.02456  -0.0702   0.9717   0.1332
  -3.700  -0.2006   0.03263   0.02391  -0.0713   0.9679   0.1367
  -3.600  -0.1808   0.03180   0.02267  -0.0730   0.9653   0.1408
  -3.500  -0.1633   0.03144   0.02244  -0.0745   0.9624   0.1447
  -3.400  -0.1484   0.03099   0.02184  -0.0754   0.9583   0.1491
  -3.300  -0.1298   0.03047   0.02121  -0.0769   0.9554   0.1539
  -3.200  -0.1110   0.03013   0.02082  -0.0785   0.9527   0.1597
  -3.100  -0.0976   0.02973   0.02033  -0.0791   0.9482   0.1645
  -3.000  -0.0795   0.02943   0.02001  -0.0805   0.9451   0.1711
  -2.900  -0.0599   0.02907   0.01962  -0.0822   0.9428   0.1782
  -2.800  -0.0479   0.02883   0.01923  -0.0824   0.9376   0.1850
  -2.700  -0.0302   0.02853   0.01904  -0.0838   0.9346   0.1925
  -2.600  -0.0103   0.02822   0.01873  -0.0855   0.9322   0.2020
  -2.500   0.0003   0.02803   0.01849  -0.0855   0.9268   0.2097
  -2.400   0.0183   0.02776   0.01822  -0.0868   0.9237   0.2205
  -2.300   0.0383   0.02747   0.01797  -0.0885   0.9215   0.2328
  -2.200   0.0476   0.02735   0.01784  -0.0883   0.9156   0.2425
  -2.100   0.0657   0.02707   0.01763  -0.0896   0.9127   0.2561
  -2.000   0.0838   0.02679   0.01744  -0.0909   0.9099   0.2711
  -1.900   0.0939   0.02665   0.01736  -0.0908   0.9044   0.2836
  -1.800   0.1120   0.02638   0.01712  -0.0921   0.9015   0.3030
  -1.700   0.1294   0.02609   0.01693  -0.0932   0.8987   0.3231
  -1.600   0.1393   0.02592   0.01686  -0.0931   0.8932   0.3404
  -1.500   0.1570   0.02557   0.01664  -0.0942   0.8905   0.3666
  -1.400   0.1767   0.02513   0.01639  -0.0957   0.8886   0.4004
  -1.300   0.1838   0.02500   0.01641  -0.0950   0.8823   0.4266
  -1.200   0.2012   0.02454   0.01625  -0.0961   0.8797   0.4803
  -1.100   0.2181   0.02384   0.01613  -0.0967   0.8780   0.5843
  -1.000   0.2194   0.02340   0.01629  -0.0941   0.8726   0.7189
  -0.900   0.2443   0.02287   0.01604  -0.0954   0.8698   1.0000
  -0.800   0.2659   0.02280   0.01577  -0.0972   0.8675   1.0000
  -0.700   0.2751   0.02293   0.01579  -0.0970   0.8617   1.0000
  -0.600   0.2926   0.02290   0.01564  -0.0981   0.8582   1.0000
  -0.500   0.3139   0.02279   0.01541  -0.0998   0.8561   1.0000
  -0.400   0.3216   0.02295   0.01549  -0.0993   0.8500   1.0000
  -0.300   0.3391   0.02289   0.01534  -0.1003   0.8469   1.0000
  -0.200   0.3589   0.02275   0.01510  -0.1016   0.8448   1.0000
  -0.100   0.3657   0.02294   0.01524  -0.1010   0.8385   1.0000
   0.000   0.3824   0.02286   0.01508  -0.1018   0.8355   1.0000
   0.100   0.4018   0.02270   0.01484  -0.1030   0.8335   1.0000
   0.200   0.4076   0.02293   0.01502  -0.1022   0.8269   1.0000
   0.300   0.4242   0.02282   0.01485  -0.1030   0.8241   1.0000
   0.400   0.4432   0.02264   0.01461  -0.1040   0.8222   1.0000
   0.500   0.4481   0.02291   0.01484  -0.1031   0.8154   1.0000
   0.600   0.4647   0.02278   0.01466  -0.1038   0.8127   1.0000
   0.700   0.4831   0.02259   0.01441  -0.1048   0.8108   1.0000
   0.800   0.4875   0.02290   0.01469  -0.1038   0.8040   1.0000
   0.900   0.5039   0.02276   0.01451  -0.1044   0.8014   1.0000
   1.000   0.5219   0.02256   0.01426  -0.1052   0.7995   1.0000
   1.100   0.5258   0.02290   0.01457  -0.1042   0.7926   1.0000
   1.200   0.5419   0.02276   0.01439  -0.1048   0.7900   1.0000
   1.300   0.5595   0.02256   0.01415  -0.1055   0.7881   1.0000
   1.500   0.5789   0.02280   0.01433  -0.1049   0.7787   1.0000
   1.600   0.5962   0.02260   0.01409  -0.1056   0.7768   1.0000
   1.700   0.5994   0.02301   0.01449  -0.1045   0.7699   1.0000
   1.800   0.6150   0.02287   0.01432  -0.1050   0.7673   1.0000
   2.000   0.6349   0.02312   0.01453  -0.1045   0.7586   1.0000
   2.100   0.6502   0.02298   0.01437  -0.1049   0.7560   1.0000
   2.200   0.6608   0.02309   0.01445  -0.1047   0.7521   1.0000
   2.300   0.6697   0.02327   0.01462  -0.1043   0.7473   1.0000
   2.400   0.6848   0.02314   0.01447  -0.1047   0.7447   1.0000
   2.500   0.6948   0.02328   0.01460  -0.1044   0.7407   1.0000
   2.600   0.7038   0.02346   0.01477  -0.1041   0.7361   1.0000
   2.700   0.7186   0.02334   0.01463  -0.1044   0.7335   1.0000
   2.800   0.7283   0.02350   0.01478  -0.1041   0.7294   1.0000
   2.900   0.7373   0.02369   0.01497  -0.1038   0.7248   1.0000
   3.000   0.7519   0.02358   0.01484  -0.1041   0.7222   1.0000
   3.100   0.7615   0.02375   0.01501  -0.1038   0.7182   1.0000
   3.200   0.7702   0.02397   0.01523  -0.1034   0.7136   1.0000
   3.300   0.7847   0.02387   0.01511  -0.1036   0.7109   1.0000
   3.400   0.7943   0.02404   0.01529  -0.1033   0.7070   1.0000
   3.500   0.8027   0.02428   0.01553  -0.1029   0.7024   1.0000
   3.600   0.8170   0.02418   0.01542  -0.1032   0.6997   1.0000
   3.700   0.8266   0.02436   0.01561  -0.1029   0.6958   1.0000
   3.800   0.8348   0.02462   0.01588  -0.1024   0.6912   1.0000
   3.900   0.8490   0.02453   0.01578  -0.1026   0.6884   1.0000
   4.000   0.8585   0.02472   0.01598  -0.1023   0.6845   1.0000
   4.100   0.8665   0.02499   0.01626  -0.1019   0.6799   1.0000
   4.200   0.8807   0.02490   0.01616  -0.1021   0.6771   1.0000
   4.300   0.8899   0.02511   0.01639  -0.1017   0.6732   1.0000
   4.400   0.8980   0.02538   0.01668  -0.1013   0.6686   1.0000
   4.500   0.9123   0.02529   0.01658  -0.1015   0.6658   1.0000
   4.600   0.9208   0.02554   0.01685  -0.1011   0.6616   1.0000
   4.700   0.9293   0.02578   0.01712  -0.1007   0.6572   1.0000
   4.800   0.9438   0.02568   0.01700  -0.1009   0.6544   1.0000
   4.900   0.9512   0.02600   0.01735  -0.1003   0.6499   1.0000
   5.000   0.9604   0.02619   0.01757  -0.1000   0.6457   1.0000
   5.100   0.9753   0.02607   0.01743  -0.1002   0.6428   1.0000
   5.200   0.9812   0.02647   0.01788  -0.0995   0.6380   1.0000
   5.300   0.9916   0.02660   0.01803  -0.0993   0.6340   1.0000
   5.400   1.0072   0.02643   0.01784  -0.0996   0.6312   1.0000
   5.500   1.0112   0.02694   0.01842  -0.0987   0.6258   1.0000
   5.600   1.0231   0.02697   0.01846  -0.0986   0.6220   1.0000
   5.700   1.0395   0.02676   0.01822  -0.0990   0.6193   1.0000
   5.800   1.0415   0.02737   0.01891  -0.0979   0.6134   1.0000
   5.900   1.0552   0.02729   0.01884  -0.0979   0.6099   1.0000
   6.000   1.0655   0.02743   0.01899  -0.0977   0.6058   1.0000
   6.100   1.0726   0.02772   0.01934  -0.0970   0.6008   1.0000
   6.200   1.0883   0.02752   0.01912  -0.0973   0.5975   1.0000
   6.300   1.0929   0.02797   0.01964  -0.0964   0.5921   1.0000
   6.400   1.1052   0.02795   0.01963  -0.0963   0.5879   1.0000
   6.500   1.1177   0.02793   0.01961  -0.0963   0.5839   1.0000
   6.600   1.1237   0.02827   0.02001  -0.0955   0.5783   1.0000
   6.700   1.1402   0.02799   0.01971  -0.0958   0.5746   1.0000
   6.800   1.1438   0.02845   0.02025  -0.0947   0.5687   1.0000
   6.900   1.1583   0.02826   0.02005  -0.0948   0.5643   1.0000
   7.000   1.1651   0.02852   0.02036  -0.0941   0.5587   1.0000
   7.100   1.1777   0.02841   0.02026  -0.0939   0.5536   1.0000
   7.200   1.1864   0.02854   0.02042  -0.0934   0.5480   1.0000
   7.300   1.1980   0.02845   0.02034  -0.0931   0.5425   1.0000
   7.400   1.2067   0.02854   0.02046  -0.0925   0.5366   1.0000
   7.500   1.2192   0.02838   0.02029  -0.0923   0.5308   1.0000
   7.600   1.2263   0.02853   0.02049  -0.0915   0.5244   1.0000
   7.700   1.2410   0.02823   0.02015  -0.0915   0.5185   1.0000
   7.800   1.2459   0.02847   0.02046  -0.0905   0.5116   1.0000
   7.900   1.2605   0.02817   0.02011  -0.0905   0.5056   1.0000
   8.000   1.2661   0.02834   0.02034  -0.0895   0.4985   1.0000
   8.100   1.2755   0.02831   0.02032  -0.0889   0.4918   1.0000
   8.200   1.2873   0.02813   0.02013  -0.0886   0.4850   1.0000
   8.300   1.2926   0.02829   0.02036  -0.0875   0.4777   1.0000
   8.400   1.3034   0.02816   0.02020  -0.0871   0.4707   1.0000
   8.500   1.3117   0.02813   0.02019  -0.0864   0.4633   1.0000
   8.600   1.3175   0.02824   0.02035  -0.0854   0.4556   1.0000
   8.700   1.3270   0.02814   0.02024  -0.0848   0.4482   1.0000
   8.800   1.3350   0.02809   0.02020  -0.0840   0.4403   1.0000
   8.900   1.3395   0.02821   0.02039  -0.0828   0.4321   1.0000
   9.000   1.3459   0.02823   0.02042  -0.0818   0.4239   1.0000
   9.100   1.3533   0.02817   0.02035  -0.0810   0.4155   1.0000
   9.200   1.3586   0.02820   0.02040  -0.0798   0.4067   1.0000
   9.300   1.3616   0.02832   0.02058  -0.0784   0.3975   1.0000
   9.400   1.3649   0.02842   0.02071  -0.0770   0.3880   1.0000
   9.500   1.3680   0.02851   0.02084  -0.0756   0.3782   1.0000
   9.600   1.3705   0.02862   0.02096  -0.0741   0.3680   1.0000
   9.700   1.3723   0.02877   0.02112  -0.0725   0.3573   1.0000
   9.800   1.3732   0.02896   0.02130  -0.0708   0.3461   1.0000
   9.900   1.3734   0.02920   0.02152  -0.0690   0.3344   1.0000
  10.000   1.3727   0.02949   0.02178  -0.0671   0.3222   1.0000
  10.100   1.3707   0.02982   0.02206  -0.0651   0.3103   1.0000
  10.200   1.3679   0.03025   0.02241  -0.0630   0.2980   1.0000
  10.300   1.3643   0.03079   0.02291  -0.0609   0.2848   1.0000
  10.400   1.3606   0.03141   0.02346  -0.0589   0.2717   1.0000
  10.500   1.3567   0.03210   0.02405  -0.0570   0.2589   1.0000
  10.600   1.3527   0.03287   0.02469  -0.0552   0.2467   1.0000
  10.700   1.3487   0.03371   0.02544  -0.0535   0.2347   1.0000
  10.800   1.3448   0.03461   0.02625  -0.0518   0.2230   1.0000
  10.900   1.3413   0.03554   0.02709  -0.0503   0.2122   1.0000
  11.000   1.3382   0.03650   0.02794  -0.0489   0.2024   1.0000
  11.100   1.3358   0.03746   0.02879  -0.0476   0.1933   1.0000
  11.200   1.3339   0.03841   0.02964  -0.0464   0.1849   1.0000
  11.300   1.3325   0.03937   0.03057  -0.0453   0.1767   1.0000
  11.400   1.3319   0.04032   0.03147  -0.0443   0.1693   1.0000
  11.500   1.3323   0.04123   0.03227  -0.0433   0.1627   1.0000
  11.600   1.3331   0.04211   0.03310  -0.0424   0.1564   1.0000
  11.700   1.3343   0.04302   0.03399  -0.0416   0.1505   1.0000
  11.800   1.3381   0.04378   0.03458  -0.0409   0.1450   1.0000
  11.900   1.3392   0.04471   0.03560  -0.0400   0.1399   1.0000
  12.000   1.3449   0.04542   0.03615  -0.0394   0.1349   1.0000
  12.100   1.3465   0.04632   0.03714  -0.0387   0.1306   1.0000
  12.200   1.3554   0.04693   0.03756  -0.0383   0.1259   1.0000
  12.300   1.3568   0.04787   0.03863  -0.0375   0.1224   1.0000
  12.400   1.3642   0.04853   0.03920  -0.0371   0.1184   1.0000
  12.500   1.3705   0.04935   0.04002  -0.0366   0.1149   1.0000
  12.600   1.3741   0.05021   0.04094  -0.0360   0.1119   1.0000
  12.700   1.3912   0.05071   0.04121  -0.0362   0.1078   1.0000
  12.800   1.3910   0.05174   0.04241  -0.0353   0.1058   1.0000
  12.900   1.3945   0.05264   0.04340  -0.0347   0.1033   1.0000
  13.000   1.4071   0.05326   0.04390  -0.0347   0.1003   1.0000
  13.100   1.4151   0.05422   0.04490  -0.0344   0.0980   1.0000
  13.200   1.4161   0.05528   0.04610  -0.0337   0.0963   1.0000
  13.300   1.4204   0.05622   0.04711  -0.0331   0.0944   1.0000
  13.400   1.4325   0.05694   0.04775  -0.0332   0.0920   1.0000
  13.500   1.4433   0.05799   0.04880  -0.0331   0.0900   1.0000
  13.600   1.4410   0.05919   0.05017  -0.0322   0.0891   1.0000
  13.700   1.4405   0.06039   0.05151  -0.0315   0.0881   1.0000
  13.800   1.4416   0.06153   0.05276  -0.0308   0.0868   1.0000
  13.900   1.4472   0.06252   0.05379  -0.0305   0.0854   1.0000
  14.000   1.4749   0.06335   0.05438  -0.0316   0.0826   1.0000
  14.100   1.4686   0.06465   0.05586  -0.0305   0.0822   1.0000
  14.200   1.4630   0.06602   0.05740  -0.0295   0.0817   1.0000
  14.300   1.4575   0.06745   0.05899  -0.0287   0.0813   1.0000
  14.400   1.4520   0.06892   0.06062  -0.0279   0.0809   1.0000
  14.500   1.4465   0.07044   0.06228  -0.0272   0.0804   1.0000
  14.600   1.4410   0.07199   0.06397  -0.0266   0.0800   1.0000
  14.700   1.4354   0.07358   0.06569  -0.0261   0.0796   1.0000
  14.800   1.4298   0.07520   0.06743  -0.0256   0.0792   1.0000
  14.900   1.4240   0.07686   0.06920  -0.0252   0.0788   1.0000
  15.000   1.4183   0.07855   0.07100  -0.0249   0.0784   1.0000
  15.100   1.4125   0.08028   0.07284  -0.0247   0.0781   1.0000
  15.200   1.4065   0.08206   0.07473  -0.0245   0.0778   1.0000
  15.300   1.4009   0.08383   0.07660  -0.0244   0.0775   1.0000
  15.400   1.3954   0.08564   0.07850  -0.0243   0.0771   1.0000
  15.500   1.3917   0.08734   0.08027  -0.0243   0.0767   1.0000
  15.600   1.4216   0.08737   0.08009  -0.0238   0.0748   1.0000
  15.700   1.4117   0.08943   0.08227  -0.0238   0.0747   1.0000
  15.800   1.4018   0.09157   0.08452  -0.0240   0.0747   1.0000
  15.900   1.3918   0.09377   0.08684  -0.0242   0.0747   1.0000
  16.000   1.3817   0.09605   0.08923  -0.0246   0.0747   1.0000
  16.100   1.3714   0.09842   0.09171  -0.0251   0.0748   1.0000
  16.200   1.3614   0.10084   0.09422  -0.0257   0.0748   1.0000
  16.300   1.3514   0.10334   0.09682  -0.0264   0.0749   1.0000
