  
       XFOIL         Version 6.99
  
 Calculated polar for: NACA 4412                                       
  
 1 1 Reynolds number fixed          Mach number fixed         
  
 xtrf =   1.000 (top)        1.000 (bottom)  
 Mach =   0.000     Re =     0.090 e 6     Ncrit =   9.000
  
   alpha    CL        CD       CDp       CM     Top_Xtr  Bot_Xtr
  ------ -------- --------- --------- -------- -------- --------
 -10.000  -0.3427   0.11771   0.11222  -0.0407   1.0000   0.1192
  -9.900  -0.3547   0.11744   0.11202  -0.0419   1.0000   0.1195
  -9.800  -0.3386   0.11464   0.10919  -0.0402   1.0000   0.1204
  -9.700  -0.3295   0.11300   0.10755  -0.0392   1.0000   0.1215
  -9.600  -0.3253   0.11182   0.10637  -0.0386   1.0000   0.1227
  -9.500  -0.3236   0.11078   0.10535  -0.0383   1.0000   0.1240
  -9.400  -0.3237   0.10982   0.10441  -0.0381   1.0000   0.1255
  -9.300  -0.3264   0.10898   0.10360  -0.0382   1.0000   0.1272
  -9.200  -0.3343   0.10841   0.10308  -0.0386   1.0000   0.1287
  -9.100  -0.3469   0.10813   0.10287  -0.0392   1.0000   0.1294
  -9.000  -0.3612   0.10792   0.10273  -0.0396   1.0000   0.1298
  -8.900  -0.3629   0.10659   0.10144  -0.0392   1.0000   0.1302
  -8.800  -0.3384   0.10405   0.09884  -0.0372   1.0000   0.1321
  -8.700  -0.3348   0.10305   0.09784  -0.0363   1.0000   0.1337
  -8.600  -0.3353   0.10221   0.09703  -0.0357   1.0000   0.1353
  -8.500  -0.3389   0.10148   0.09633  -0.0352   1.0000   0.1369
  -8.400  -0.3464   0.10093   0.09583  -0.0348   1.0000   0.1384
  -8.300  -0.3589   0.10064   0.09560  -0.0345   1.0000   0.1395
  -8.200  -0.3732   0.10047   0.09550  -0.0339   1.0000   0.1399
  -8.100  -0.3880   0.10032   0.09542  -0.0330   1.0000   0.1402
  -8.000  -0.4027   0.10017   0.09534  -0.0319   1.0000   0.1403
  -7.900  -0.4171   0.09994   0.09517  -0.0309   1.0000   0.1405
  -7.800  -0.4319   0.09941   0.09470  -0.0313   1.0000   0.1406
  -7.700  -0.3741   0.09546   0.09060  -0.0289   1.0000   0.1447
  -7.600  -0.3785   0.09485   0.09003  -0.0278   1.0000   0.1459
  -7.500  -0.3854   0.09435   0.08956  -0.0266   1.0000   0.1469
  -7.400  -0.3945   0.09394   0.08920  -0.0254   1.0000   0.1479
  -7.300  -0.4057   0.09360   0.08892  -0.0241   1.0000   0.1487
  -7.200  -0.4186   0.09319   0.08856  -0.0235   1.0000   0.1497
  -7.100  -0.4349   0.09261   0.08804  -0.0244   1.0000   0.1507
  -7.000  -0.4544   0.09165   0.08713  -0.0273   1.0000   0.1513
  -6.900  -0.4546   0.09028   0.08579  -0.0263   1.0000   0.1519
  -6.800  -0.4468   0.08925   0.08477  -0.0233   1.0000   0.1527
  -6.700  -0.4435   0.08839   0.08392  -0.0215   1.0000   0.1537
  -6.600  -0.4428   0.08759   0.08313  -0.0203   1.0000   0.1549
  -6.500  -0.4443   0.08678   0.08234  -0.0196   1.0000   0.1564
  -6.400  -0.4478   0.08588   0.08146  -0.0195   1.0000   0.1583
  -6.300  -0.4580   0.08459   0.08019  -0.0221   1.0000   0.1612
  -6.200  -0.4688   0.08249   0.07807  -0.0263   1.0000   0.1630
  -6.100  -0.4651   0.08167   0.07729  -0.0236   1.0000   0.1637
  -6.000  -0.4622   0.08099   0.07664  -0.0215   1.0000   0.1648
  -5.900  -0.4606   0.08029   0.07595  -0.0201   1.0000   0.1665
  -5.800  -0.4606   0.07938   0.07505  -0.0199   1.0000   0.1687
  -5.700  -0.4681   0.07669   0.07226  -0.0269   1.0000   0.1742
  -5.600  -0.4655   0.07590   0.07153  -0.0245   1.0000   0.1750
  -5.500  -0.4609   0.07514   0.07079  -0.0229   0.9995   0.1763
  -5.400  -0.4472   0.07379   0.06942  -0.0243   0.9970   0.1802
  -5.300  -0.4324   0.07078   0.06631  -0.0308   0.9933   0.1869
  -5.200  -0.4198   0.06961   0.06514  -0.0311   0.9908   0.1894
  -5.000  -0.3928   0.06601   0.06144  -0.0367   0.9845   0.2006
  -4.900  -0.3763   0.06374   0.05906  -0.0416   0.9814   0.2098
  -4.800  -0.3655   0.06268   0.05801  -0.0416   0.9781   0.2124
  -4.700  -0.3498   0.06057   0.05579  -0.0459   0.9746   0.2214
  -4.600  -0.3353   0.05934   0.05455  -0.0468   0.9725   0.2246
  -4.500  -0.3107   0.05222   0.04692  -0.0573   0.9687   0.1887
  -4.400  -0.2972   0.05178   0.04649  -0.0581   0.9656   0.2007
  -4.300  -0.2548   0.03376   0.02582  -0.0709   0.9703   0.1144
  -4.200  -0.2381   0.03279   0.02459  -0.0723   0.9673   0.1167
  -4.100  -0.2187   0.03171   0.02304  -0.0740   0.9651   0.1196
  -4.000  -0.2013   0.03125   0.02271  -0.0755   0.9628   0.1224
  -3.900  -0.1879   0.03081   0.02220  -0.0761   0.9587   0.1253
  -3.800  -0.1695   0.03011   0.02117  -0.0775   0.9560   0.1294
  -3.700  -0.1508   0.02960   0.02071  -0.0792   0.9539   0.1329
  -3.600  -0.1377   0.02927   0.02033  -0.0797   0.9497   0.1367
  -3.500  -0.1206   0.02874   0.01957  -0.0809   0.9466   0.1414
  -3.400  -0.1023   0.02839   0.01930  -0.0824   0.9442   0.1461
  -3.300  -0.0868   0.02802   0.01872  -0.0832   0.9407   0.1517
  -3.200  -0.0728   0.02771   0.01852  -0.0839   0.9368   0.1562
  -3.100  -0.0542   0.02734   0.01800  -0.0853   0.9343   0.1632
  -3.000  -0.0355   0.02703   0.01776  -0.0868   0.9320   0.1699
  -2.900  -0.0249   0.02678   0.01747  -0.0868   0.9269   0.1757
  -2.800  -0.0072   0.02650   0.01715  -0.0880   0.9240   0.1842
  -2.700   0.0121   0.02617   0.01689  -0.0896   0.9220   0.1930
  -2.600   0.0221   0.02599   0.01672  -0.0895   0.9167   0.2000
  -2.500   0.0389   0.02572   0.01645  -0.0906   0.9136   0.2102
  -2.400   0.0580   0.02542   0.01619  -0.0920   0.9115   0.2221
  -2.300   0.0689   0.02527   0.01604  -0.0921   0.9064   0.2321
  -2.200   0.0847   0.02501   0.01584  -0.0929   0.9030   0.2446
  -2.100   0.1036   0.02470   0.01562  -0.0943   0.9008   0.2595
  -2.000   0.1155   0.02453   0.01550  -0.0945   0.8963   0.2727
  -1.900   0.1301   0.02431   0.01532  -0.0952   0.8925   0.2894
  -1.800   0.1485   0.02397   0.01510  -0.0964   0.8903   0.3090
  -1.700   0.1684   0.02360   0.01483  -0.0980   0.8886   0.3330
  -1.600   0.1753   0.02350   0.01481  -0.0973   0.8822   0.3502
  -1.500   0.1928   0.02310   0.01458  -0.0984   0.8798   0.3785
  -1.400   0.2118   0.02263   0.01432  -0.0997   0.8782   0.4162
  -1.300   0.2202   0.02242   0.01432  -0.0992   0.8727   0.4510
  -1.200   0.2355   0.02191   0.01420  -0.0998   0.8699   0.5237
  -1.100   0.2482   0.02115   0.01412  -0.0992   0.8681   0.6735
  -1.000   0.2777   0.02037   0.01387  -0.1009   0.8675   1.0000
  -0.900   0.2875   0.02045   0.01382  -0.1007   0.8618   1.0000
  -0.800   0.3039   0.02038   0.01362  -0.1016   0.8584   1.0000
  -0.700   0.3233   0.02024   0.01335  -0.1029   0.8564   1.0000
  -0.600   0.3324   0.02032   0.01336  -0.1025   0.8507   1.0000
  -0.500   0.3480   0.02025   0.01318  -0.1032   0.8473   1.0000
  -0.400   0.3665   0.02009   0.01294  -0.1043   0.8451   1.0000
  -0.300   0.3750   0.02019   0.01297  -0.1038   0.8394   1.0000
  -0.200   0.3902   0.02011   0.01281  -0.1044   0.8360   1.0000
  -0.100   0.4080   0.01995   0.01257  -0.1053   0.8338   1.0000
   0.000   0.4160   0.02006   0.01264  -0.1048   0.8279   1.0000
   0.100   0.4309   0.01997   0.01248  -0.1052   0.8246   1.0000
   0.200   0.4482   0.01980   0.01225  -0.1061   0.8225   1.0000
   0.300   0.4556   0.01995   0.01235  -0.1054   0.8164   1.0000
   0.400   0.4704   0.01985   0.01220  -0.1058   0.8132   1.0000
   0.500   0.4874   0.01967   0.01196  -0.1066   0.8110   1.0000
   0.600   0.4940   0.01985   0.01211  -0.1058   0.8046   1.0000
   0.700   0.5088   0.01974   0.01195  -0.1062   0.8016   1.0000
   0.800   0.5255   0.01956   0.01172  -0.1069   0.7995   1.0000
   0.900   0.5314   0.01979   0.01191  -0.1060   0.7929   1.0000
   1.000   0.5462   0.01967   0.01175  -0.1064   0.7900   1.0000
   1.100   0.5600   0.01960   0.01164  -0.1066   0.7868   1.0000
   1.200   0.5680   0.01975   0.01177  -0.1061   0.7811   1.0000
   1.300   0.5829   0.01963   0.01160  -0.1064   0.7783   1.0000
   1.400   0.5928   0.01972   0.01166  -0.1062   0.7737   1.0000
   1.500   0.6038   0.01976   0.01167  -0.1060   0.7693   1.0000
   1.600   0.6187   0.01964   0.01150  -0.1064   0.7667   1.0000
   1.700   0.6269   0.01981   0.01167  -0.1059   0.7613   1.0000
   1.800   0.6390   0.01981   0.01163  -0.1059   0.7575   1.0000
   1.900   0.6539   0.01969   0.01147  -0.1062   0.7550   1.0000
   2.000   0.6609   0.01993   0.01170  -0.1056   0.7493   1.0000
   2.100   0.6735   0.01990   0.01165  -0.1056   0.7458   1.0000
   2.200   0.6885   0.01978   0.01149  -0.1060   0.7434   1.0000
   2.300   0.6946   0.02008   0.01178  -0.1053   0.7374   1.0000
   2.400   0.7075   0.02004   0.01172  -0.1054   0.7341   1.0000
   2.500   0.7218   0.01996   0.01160  -0.1056   0.7315   1.0000
   2.600   0.7279   0.02026   0.01192  -0.1049   0.7256   1.0000
   2.700   0.7410   0.02023   0.01185  -0.1050   0.7225   1.0000
   2.800   0.7525   0.02029   0.01189  -0.1049   0.7189   1.0000
   2.900   0.7608   0.02049   0.01210  -0.1045   0.7139   1.0000
   3.000   0.7741   0.02046   0.01203  -0.1046   0.7109   1.0000
   3.100   0.7841   0.02059   0.01216  -0.1044   0.7069   1.0000
   3.200   0.7933   0.02076   0.01233  -0.1041   0.7024   1.0000
   3.300   0.8067   0.02072   0.01227  -0.1042   0.6994   1.0000
   3.400   0.8158   0.02091   0.01246  -0.1039   0.6951   1.0000
   3.500   0.8255   0.02105   0.01261  -0.1036   0.6909   1.0000
   3.600   0.8390   0.02102   0.01254  -0.1037   0.6880   1.0000
   3.700   0.8474   0.02125   0.01278  -0.1033   0.6835   1.0000
   3.800   0.8574   0.02138   0.01293  -0.1031   0.6794   1.0000
   3.900   0.8710   0.02135   0.01286  -0.1032   0.6766   1.0000
   4.000   0.8788   0.02161   0.01315  -0.1028   0.6720   1.0000
   4.100   0.8890   0.02174   0.01328  -0.1025   0.6680   1.0000
   4.200   0.9027   0.02170   0.01321  -0.1027   0.6651   1.0000
   4.300   0.9100   0.02199   0.01354  -0.1022   0.6604   1.0000
   4.400   0.9204   0.02211   0.01367  -0.1020   0.6565   1.0000
   4.500   0.9343   0.02207   0.01360  -0.1022   0.6537   1.0000
   4.600   0.9410   0.02239   0.01396  -0.1015   0.6488   1.0000
   4.700   0.9517   0.02250   0.01407  -0.1014   0.6450   1.0000
   4.800   0.9658   0.02245   0.01399  -0.1016   0.6422   1.0000
   4.900   0.9717   0.02281   0.01441  -0.1009   0.6371   1.0000
   5.000   0.9829   0.02289   0.01450  -0.1007   0.6333   1.0000
   5.100   0.9973   0.02283   0.01440  -0.1010   0.6306   1.0000
   5.200   1.0022   0.02323   0.01487  -0.1002   0.6252   1.0000
   5.300   1.0141   0.02328   0.01492  -0.1001   0.6215   1.0000
   5.400   1.0267   0.02331   0.01494  -0.1001   0.6183   1.0000
   5.500   1.0328   0.02364   0.01534  -0.0994   0.6131   1.0000
   5.600   1.0455   0.02365   0.01533  -0.0995   0.6096   1.0000
   5.700   1.0549   0.02383   0.01554  -0.0991   0.6054   1.0000
   5.800   1.0635   0.02404   0.01578  -0.0987   0.6007   1.0000
   5.900   1.0774   0.02398   0.01570  -0.0988   0.5974   1.0000
   6.000   1.0837   0.02430   0.01609  -0.0981   0.5923   1.0000
   6.100   1.0948   0.02437   0.01616  -0.0980   0.5881   1.0000
   6.200   1.1076   0.02437   0.01614  -0.0980   0.5844   1.0000
   6.300   1.1136   0.02468   0.01653  -0.0972   0.5789   1.0000
   6.400   1.1272   0.02462   0.01643  -0.0973   0.5751   1.0000
   6.500   1.1339   0.02489   0.01678  -0.0966   0.5698   1.0000
   6.600   1.1453   0.02492   0.01681  -0.0964   0.5652   1.0000
   6.700   1.1556   0.02501   0.01690  -0.0961   0.5605   1.0000
   6.800   1.1642   0.02515   0.01708  -0.0956   0.5551   1.0000
   6.900   1.1776   0.02506   0.01696  -0.0956   0.5507   1.0000
   7.000   1.1836   0.02530   0.01728  -0.0948   0.5445   1.0000
   7.100   1.1981   0.02514   0.01705  -0.0949   0.5399   1.0000
   7.200   1.2032   0.02540   0.01740  -0.0939   0.5334   1.0000
   7.300   1.2169   0.02525   0.01720  -0.0940   0.5283   1.0000
   7.400   1.2227   0.02545   0.01747  -0.0930   0.5217   1.0000
   7.500   1.2344   0.02538   0.01737  -0.0928   0.5161   1.0000
   7.600   1.2421   0.02547   0.01751  -0.0921   0.5095   1.0000
   7.700   1.2515   0.02549   0.01754  -0.0916   0.5034   1.0000
   7.800   1.2615   0.02546   0.01751  -0.0912   0.4970   1.0000
   7.900   1.2686   0.02557   0.01766  -0.0904   0.4904   1.0000
   8.000   1.2811   0.02544   0.01747  -0.0902   0.4843   1.0000
   8.100   1.2860   0.02562   0.01774  -0.0892   0.4771   1.0000
   8.200   1.2957   0.02559   0.01771  -0.0887   0.4706   1.0000
   8.300   1.3037   0.02562   0.01775  -0.0880   0.4635   1.0000
   8.400   1.3102   0.02572   0.01790  -0.0871   0.4563   1.0000
   8.500   1.3203   0.02565   0.01779  -0.0866   0.4495   1.0000
   8.600   1.3258   0.02576   0.01797  -0.0856   0.4418   1.0000
   8.700   1.3320   0.02584   0.01809  -0.0847   0.4342   1.0000
   8.800   1.3403   0.02582   0.01805  -0.0840   0.4268   1.0000
   8.900   1.3456   0.02590   0.01818  -0.0829   0.4186   1.0000
   9.000   1.3502   0.02601   0.01834  -0.0817   0.4103   1.0000
   9.100   1.3554   0.02608   0.01843  -0.0806   0.4019   1.0000
   9.200   1.3607   0.02614   0.01849  -0.0795   0.3932   1.0000
   9.300   1.3652   0.02621   0.01857  -0.0783   0.3842   1.0000
   9.400   1.3679   0.02636   0.01878  -0.0768   0.3745   1.0000
   9.500   1.3705   0.02652   0.01896  -0.0754   0.3644   1.0000
   9.600   1.3726   0.02669   0.01915  -0.0739   0.3539   1.0000
   9.700   1.3741   0.02690   0.01935  -0.0723   0.3429   1.0000
   9.800   1.3750   0.02715   0.01958  -0.0706   0.3313   1.0000
   9.900   1.3749   0.02746   0.01985  -0.0689   0.3192   1.0000
  10.000   1.3730   0.02782   0.02019  -0.0668   0.3067   1.0000
  10.100   1.3706   0.02825   0.02058  -0.0648   0.2939   1.0000
  10.200   1.3679   0.02875   0.02102  -0.0628   0.2808   1.0000
  10.300   1.3646   0.02934   0.02152  -0.0608   0.2678   1.0000
  10.400   1.3610   0.03003   0.02212  -0.0589   0.2542   1.0000
  10.500   1.3571   0.03078   0.02280  -0.0571   0.2408   1.0000
  10.600   1.3530   0.03161   0.02353  -0.0554   0.2284   1.0000
  10.700   1.3490   0.03250   0.02431  -0.0537   0.2168   1.0000
  10.800   1.3451   0.03343   0.02514  -0.0521   0.2060   1.0000
  10.900   1.3416   0.03439   0.02600  -0.0507   0.1959   1.0000
  11.000   1.3386   0.03536   0.02689  -0.0493   0.1865   1.0000
  11.100   1.3360   0.03634   0.02780  -0.0481   0.1777   1.0000
  11.200   1.3340   0.03732   0.02871  -0.0469   0.1699   1.0000
  11.300   1.3325   0.03828   0.02958  -0.0458   0.1632   1.0000
  11.400   1.3316   0.03923   0.03047  -0.0448   0.1565   1.0000
  11.500   1.3314   0.04016   0.03137  -0.0438   0.1502   1.0000
  11.600   1.3320   0.04105   0.03212  -0.0430   0.1450   1.0000
  11.700   1.3326   0.04195   0.03307  -0.0421   0.1393   1.0000
  11.800   1.3346   0.04279   0.03379  -0.0413   0.1347   1.0000
  11.900   1.3360   0.04366   0.03471  -0.0406   0.1299   1.0000
  12.000   1.3399   0.04441   0.03532  -0.0399   0.1257   1.0000
  12.100   1.3417   0.04529   0.03627  -0.0392   0.1216   1.0000
  12.200   1.3471   0.04596   0.03681  -0.0386   0.1177   1.0000
  12.300   1.3501   0.04681   0.03772  -0.0379   0.1142   1.0000
  12.400   1.3539   0.04758   0.03849  -0.0373   0.1109   1.0000
  12.500   1.3631   0.04816   0.03892  -0.0369   0.1074   1.0000
  12.600   1.3652   0.04907   0.03995  -0.0363   0.1047   1.0000
  12.700   1.3703   0.04980   0.04068  -0.0358   0.1019   1.0000
  12.800   1.3830   0.05032   0.04104  -0.0356   0.0986   1.0000
  12.900   1.3841   0.05129   0.04216  -0.0349   0.0966   1.0000
  13.000   1.3888   0.05210   0.04302  -0.0344   0.0944   1.0000
  13.100   1.4000   0.05266   0.04347  -0.0342   0.0918   1.0000
  13.200   1.4085   0.05350   0.04432  -0.0339   0.0896   1.0000
  13.300   1.4099   0.05450   0.04546  -0.0332   0.0881   1.0000
  13.400   1.4139   0.05540   0.04642  -0.0327   0.0863   1.0000
  13.500   1.4221   0.05613   0.04714  -0.0324   0.0845   1.0000
  13.600   1.4395   0.05686   0.04775  -0.0327   0.0822   1.0000
  13.700   1.4378   0.05801   0.04907  -0.0319   0.0813   1.0000
  13.800   1.4373   0.05915   0.05036  -0.0312   0.0803   1.0000
  13.900   1.4390   0.06023   0.05153  -0.0306   0.0791   1.0000
  14.000   1.4437   0.06117   0.05253  -0.0302   0.0778   1.0000
  14.100   1.4526   0.06200   0.05334  -0.0300   0.0764   1.0000
  14.200   1.4704   0.06297   0.05420  -0.0304   0.0746   1.0000
  14.300   1.4652   0.06429   0.05569  -0.0295   0.0742   1.0000
  14.400   1.4603   0.06566   0.05723  -0.0287   0.0737   1.0000
  14.500   1.4557   0.06706   0.05879  -0.0280   0.0732   1.0000
  14.600   1.4516   0.06849   0.06036  -0.0273   0.0728   1.0000
  14.700   1.4475   0.06995   0.06195  -0.0268   0.0723   1.0000
  14.800   1.4437   0.07143   0.06355  -0.0263   0.0718   1.0000
  14.900   1.4402   0.07290   0.06513  -0.0258   0.0713   1.0000
  15.000   1.4372   0.07438   0.06671  -0.0255   0.0708   1.0000
  15.100   1.4347   0.07585   0.06827  -0.0251   0.0703   1.0000
  15.200   1.4334   0.07726   0.06976  -0.0249   0.0698   1.0000
  15.300   1.4448   0.07799   0.07043  -0.0247   0.0687   1.0000
  15.400   1.4610   0.07904   0.07138  -0.0247   0.0675   1.0000
  15.500   1.4518   0.08082   0.07331  -0.0243   0.0674   1.0000
  15.600   1.4429   0.08267   0.07529  -0.0240   0.0673   1.0000
  15.700   1.4335   0.08460   0.07735  -0.0239   0.0672   1.0000
  15.800   1.4241   0.08660   0.07948  -0.0239   0.0672   1.0000
  15.900   1.4145   0.08866   0.08167  -0.0240   0.0671   1.0000
  16.000   1.4049   0.09080   0.08393  -0.0242   0.0671   1.0000
  16.100   1.3949   0.09303   0.08628  -0.0245   0.0671   1.0000
  16.200   1.3851   0.09531   0.08867  -0.0249   0.0671   1.0000
  16.300   1.3751   0.09767   0.09114  -0.0255   0.0671   1.0000
  16.400   1.3649   0.10012   0.09370  -0.0262   0.0671   1.0000
  16.500   1.3548   0.10263   0.09631  -0.0270   0.0672   1.0000
  16.600   1.3445   0.10524   0.09902  -0.0280   0.0672   1.0000
  16.700   1.3342   0.10795   0.10182  -0.0291   0.0673   1.0000
  16.800   1.3239   0.11072   0.10469  -0.0303   0.0673   1.0000
  16.900   1.3141   0.11355   0.10761  -0.0316   0.0674   1.0000
  17.000   1.3041   0.11650   0.11063  -0.0331   0.0675   1.0000
  17.100   1.2943   0.11952   0.11374  -0.0346   0.0676   1.0000
